
---------- Begin Simulation Statistics ----------
simSeconds                                   0.021088                       # Number of seconds simulated (Second)
simTicks                                  21088466000                       # Number of ticks simulated (Tick)
finalTick                                 21088466000                       # Number of ticks from beginning of simulation (restored from checkpoints and never reset) (Tick)
simFreq                                  1000000000000                       # The number of ticks per simulated second ((Tick/Second))
hostSeconds                                    256.26                       # Real time elapsed on the host (Second)
hostTickRate                                 82293175                       # The number of ticks simulated per host second (ticks/s) ((Tick/Second))
hostMemory                                     803252                       # Number of bytes of host memory used (Byte)
simInsts                                     21343836                       # Number of instructions simulated (Count)
simOps                                       39396425                       # Number of ops (including micro ops) simulated (Count)
hostInstRate                                    83290                       # Simulator instruction rate (inst/s) ((Count/Second))
hostOpRate                                     153736                       # Simulator op (including micro ops) rate (op/s) ((Count/Second))
system.clk_domain.clock                           500                       # Clock period in ticks (Tick)
system.clk_domain.voltage_domain.voltage            1                       # Voltage in Volts (Volt)
system.cpu.numCycles                         42176933                       # Number of cpu cycles simulated (Cycle)
system.cpu.numWorkItemsStarted                      0                       # Number of work items this cpu started (Count)
system.cpu.numWorkItemsCompleted                    0                       # Number of work items this cpu completed (Count)
system.cpu.instsAdded                        43720201                       # Number of instructions added to the IQ (excludes non-spec) (Count)
system.cpu.nonSpecInstsAdded                    19354                       # Number of non-speculative instructions added to the IQ (Count)
system.cpu.instsIssued                       42745938                       # Number of instructions issued (Count)
system.cpu.squashedInstsIssued                    172                       # Number of squashed instructions issued (Count)
system.cpu.squashedInstsExamined              4343124                       # Number of squashed instructions iterated over during squash; mainly for profiling (Count)
system.cpu.squashedOperandsExamined           5824397                       # Number of squashed operands that are examined and possibly removed from graph (Count)
system.cpu.squashedNonSpecRemoved               19336                       # Number of squashed non-spec instructions that were removed (Count)
system.cpu.numIssuedDist::samples            40136660                       # Number of insts issued each cycle (Count)
system.cpu.numIssuedDist::mean               1.065010                       # Number of insts issued each cycle (Count)
system.cpu.numIssuedDist::stdev              1.622495                       # Number of insts issued each cycle (Count)
system.cpu.numIssuedDist::underflows                0      0.00%      0.00% # Number of insts issued each cycle (Count)
system.cpu.numIssuedDist::0                  23578594     58.75%     58.75% # Number of insts issued each cycle (Count)
system.cpu.numIssuedDist::1                   5133853     12.79%     71.54% # Number of insts issued each cycle (Count)
system.cpu.numIssuedDist::2                   4404805     10.97%     82.51% # Number of insts issued each cycle (Count)
system.cpu.numIssuedDist::3                   2831873      7.06%     89.57% # Number of insts issued each cycle (Count)
system.cpu.numIssuedDist::4                   2046671      5.10%     94.67% # Number of insts issued each cycle (Count)
system.cpu.numIssuedDist::5                   1215502      3.03%     97.69% # Number of insts issued each cycle (Count)
system.cpu.numIssuedDist::6                    495172      1.23%     98.93% # Number of insts issued each cycle (Count)
system.cpu.numIssuedDist::7                    369890      0.92%     99.85% # Number of insts issued each cycle (Count)
system.cpu.numIssuedDist::8                     60300      0.15%    100.00% # Number of insts issued each cycle (Count)
system.cpu.numIssuedDist::overflows                 0      0.00%    100.00% # Number of insts issued each cycle (Count)
system.cpu.numIssuedDist::min_value                 0                       # Number of insts issued each cycle (Count)
system.cpu.numIssuedDist::max_value                 8                       # Number of insts issued each cycle (Count)
system.cpu.numIssuedDist::total              40136660                       # Number of insts issued each cycle (Count)
system.cpu.statFuBusy::No_OpClass                   0      0.00%      0.00% # attempts to use FU when none available (Count)
system.cpu.statFuBusy::IntAlu                       0      0.00%      0.00% # attempts to use FU when none available (Count)
system.cpu.statFuBusy::IntMult                      0      0.00%      0.00% # attempts to use FU when none available (Count)
system.cpu.statFuBusy::IntDiv                       0      0.00%      0.00% # attempts to use FU when none available (Count)
system.cpu.statFuBusy::FloatAdd                     0      0.00%      0.00% # attempts to use FU when none available (Count)
system.cpu.statFuBusy::FloatCmp                     0      0.00%      0.00% # attempts to use FU when none available (Count)
system.cpu.statFuBusy::FloatCvt                     0      0.00%      0.00% # attempts to use FU when none available (Count)
system.cpu.statFuBusy::FloatMult                    0      0.00%      0.00% # attempts to use FU when none available (Count)
system.cpu.statFuBusy::FloatMultAcc                 0      0.00%      0.00% # attempts to use FU when none available (Count)
system.cpu.statFuBusy::FloatDiv                     0      0.00%      0.00% # attempts to use FU when none available (Count)
system.cpu.statFuBusy::FloatMisc                    0      0.00%      0.00% # attempts to use FU when none available (Count)
system.cpu.statFuBusy::FloatSqrt                    0      0.00%      0.00% # attempts to use FU when none available (Count)
system.cpu.statFuBusy::SimdAdd                      0      0.00%      0.00% # attempts to use FU when none available (Count)
system.cpu.statFuBusy::SimdAddAcc                   0      0.00%      0.00% # attempts to use FU when none available (Count)
system.cpu.statFuBusy::SimdAlu                      0      0.00%      0.00% # attempts to use FU when none available (Count)
system.cpu.statFuBusy::SimdCmp                      0      0.00%      0.00% # attempts to use FU when none available (Count)
system.cpu.statFuBusy::SimdCvt                      0      0.00%      0.00% # attempts to use FU when none available (Count)
system.cpu.statFuBusy::SimdMisc                     0      0.00%      0.00% # attempts to use FU when none available (Count)
system.cpu.statFuBusy::SimdMult                     0      0.00%      0.00% # attempts to use FU when none available (Count)
system.cpu.statFuBusy::SimdMultAcc                  0      0.00%      0.00% # attempts to use FU when none available (Count)
system.cpu.statFuBusy::SimdShift                    0      0.00%      0.00% # attempts to use FU when none available (Count)
system.cpu.statFuBusy::SimdShiftAcc                 0      0.00%      0.00% # attempts to use FU when none available (Count)
system.cpu.statFuBusy::SimdDiv                      0      0.00%      0.00% # attempts to use FU when none available (Count)
system.cpu.statFuBusy::SimdSqrt                     0      0.00%      0.00% # attempts to use FU when none available (Count)
system.cpu.statFuBusy::SimdFloatAdd                 0      0.00%      0.00% # attempts to use FU when none available (Count)
system.cpu.statFuBusy::SimdFloatAlu                 0      0.00%      0.00% # attempts to use FU when none available (Count)
system.cpu.statFuBusy::SimdFloatCmp                 0      0.00%      0.00% # attempts to use FU when none available (Count)
system.cpu.statFuBusy::SimdFloatCvt                 0      0.00%      0.00% # attempts to use FU when none available (Count)
system.cpu.statFuBusy::SimdFloatDiv                 0      0.00%      0.00% # attempts to use FU when none available (Count)
system.cpu.statFuBusy::SimdFloatMisc                0      0.00%      0.00% # attempts to use FU when none available (Count)
system.cpu.statFuBusy::SimdFloatMult                0      0.00%      0.00% # attempts to use FU when none available (Count)
system.cpu.statFuBusy::SimdFloatMultAcc             0      0.00%      0.00% # attempts to use FU when none available (Count)
system.cpu.statFuBusy::SimdFloatSqrt                0      0.00%      0.00% # attempts to use FU when none available (Count)
system.cpu.statFuBusy::SimdReduceAdd                0      0.00%      0.00% # attempts to use FU when none available (Count)
system.cpu.statFuBusy::SimdReduceAlu                0      0.00%      0.00% # attempts to use FU when none available (Count)
system.cpu.statFuBusy::SimdReduceCmp                0      0.00%      0.00% # attempts to use FU when none available (Count)
system.cpu.statFuBusy::SimdFloatReduceAdd            0      0.00%      0.00% # attempts to use FU when none available (Count)
system.cpu.statFuBusy::SimdFloatReduceCmp            0      0.00%      0.00% # attempts to use FU when none available (Count)
system.cpu.statFuBusy::SimdAes                      0      0.00%      0.00% # attempts to use FU when none available (Count)
system.cpu.statFuBusy::SimdAesMix                   0      0.00%      0.00% # attempts to use FU when none available (Count)
system.cpu.statFuBusy::SimdSha1Hash                 0      0.00%      0.00% # attempts to use FU when none available (Count)
system.cpu.statFuBusy::SimdSha1Hash2                0      0.00%      0.00% # attempts to use FU when none available (Count)
system.cpu.statFuBusy::SimdSha256Hash               0      0.00%      0.00% # attempts to use FU when none available (Count)
system.cpu.statFuBusy::SimdSha256Hash2              0      0.00%      0.00% # attempts to use FU when none available (Count)
system.cpu.statFuBusy::SimdShaSigma2                0      0.00%      0.00% # attempts to use FU when none available (Count)
system.cpu.statFuBusy::SimdShaSigma3                0      0.00%      0.00% # attempts to use FU when none available (Count)
system.cpu.statFuBusy::SimdPredAlu                  0      0.00%      0.00% # attempts to use FU when none available (Count)
system.cpu.statFuBusy::MemRead                   9548     27.51%     27.51% # attempts to use FU when none available (Count)
system.cpu.statFuBusy::MemWrite                 25134     72.43%     99.94% # attempts to use FU when none available (Count)
system.cpu.statFuBusy::FloatMemRead                 2      0.01%     99.95% # attempts to use FU when none available (Count)
system.cpu.statFuBusy::FloatMemWrite               18      0.05%    100.00% # attempts to use FU when none available (Count)
system.cpu.statFuBusy::IprAccess                    0      0.00%    100.00% # attempts to use FU when none available (Count)
system.cpu.statFuBusy::InstPrefetch                 0      0.00%    100.00% # attempts to use FU when none available (Count)
system.cpu.statIssuedInstType_0::No_OpClass        54175      0.13%      0.13% # Number of instructions issued per FU type, per thread (Count)
system.cpu.statIssuedInstType_0::IntAlu      30635951     71.67%     71.80% # Number of instructions issued per FU type, per thread (Count)
system.cpu.statIssuedInstType_0::IntMult       128913      0.30%     72.10% # Number of instructions issued per FU type, per thread (Count)
system.cpu.statIssuedInstType_0::IntDiv        126951      0.30%     72.40% # Number of instructions issued per FU type, per thread (Count)
system.cpu.statIssuedInstType_0::FloatAdd        35441      0.08%     72.48% # Number of instructions issued per FU type, per thread (Count)
system.cpu.statIssuedInstType_0::FloatCmp            0      0.00%     72.48% # Number of instructions issued per FU type, per thread (Count)
system.cpu.statIssuedInstType_0::FloatCvt           32      0.00%     72.48% # Number of instructions issued per FU type, per thread (Count)
system.cpu.statIssuedInstType_0::FloatMult            0      0.00%     72.48% # Number of instructions issued per FU type, per thread (Count)
system.cpu.statIssuedInstType_0::FloatMultAcc            0      0.00%     72.48% # Number of instructions issued per FU type, per thread (Count)
system.cpu.statIssuedInstType_0::FloatDiv            0      0.00%     72.48% # Number of instructions issued per FU type, per thread (Count)
system.cpu.statIssuedInstType_0::FloatMisc            0      0.00%     72.48% # Number of instructions issued per FU type, per thread (Count)
system.cpu.statIssuedInstType_0::FloatSqrt            0      0.00%     72.48% # Number of instructions issued per FU type, per thread (Count)
system.cpu.statIssuedInstType_0::SimdAdd            0      0.00%     72.48% # Number of instructions issued per FU type, per thread (Count)
system.cpu.statIssuedInstType_0::SimdAddAcc            0      0.00%     72.48% # Number of instructions issued per FU type, per thread (Count)
system.cpu.statIssuedInstType_0::SimdAlu        70850      0.17%     72.64% # Number of instructions issued per FU type, per thread (Count)
system.cpu.statIssuedInstType_0::SimdCmp            0      0.00%     72.64% # Number of instructions issued per FU type, per thread (Count)
system.cpu.statIssuedInstType_0::SimdCvt       141717      0.33%     72.98% # Number of instructions issued per FU type, per thread (Count)
system.cpu.statIssuedInstType_0::SimdMisc       389689      0.91%     73.89% # Number of instructions issued per FU type, per thread (Count)
system.cpu.statIssuedInstType_0::SimdMult            0      0.00%     73.89% # Number of instructions issued per FU type, per thread (Count)
system.cpu.statIssuedInstType_0::SimdMultAcc            0      0.00%     73.89% # Number of instructions issued per FU type, per thread (Count)
system.cpu.statIssuedInstType_0::SimdShift            0      0.00%     73.89% # Number of instructions issued per FU type, per thread (Count)
system.cpu.statIssuedInstType_0::SimdShiftAcc            0      0.00%     73.89% # Number of instructions issued per FU type, per thread (Count)
system.cpu.statIssuedInstType_0::SimdDiv            0      0.00%     73.89% # Number of instructions issued per FU type, per thread (Count)
system.cpu.statIssuedInstType_0::SimdSqrt            0      0.00%     73.89% # Number of instructions issued per FU type, per thread (Count)
system.cpu.statIssuedInstType_0::SimdFloatAdd            0      0.00%     73.89% # Number of instructions issued per FU type, per thread (Count)
system.cpu.statIssuedInstType_0::SimdFloatAlu            0      0.00%     73.89% # Number of instructions issued per FU type, per thread (Count)
system.cpu.statIssuedInstType_0::SimdFloatCmp            0      0.00%     73.89% # Number of instructions issued per FU type, per thread (Count)
system.cpu.statIssuedInstType_0::SimdFloatCvt            0      0.00%     73.89% # Number of instructions issued per FU type, per thread (Count)
system.cpu.statIssuedInstType_0::SimdFloatDiv            0      0.00%     73.89% # Number of instructions issued per FU type, per thread (Count)
system.cpu.statIssuedInstType_0::SimdFloatMisc            0      0.00%     73.89% # Number of instructions issued per FU type, per thread (Count)
system.cpu.statIssuedInstType_0::SimdFloatMult            0      0.00%     73.89% # Number of instructions issued per FU type, per thread (Count)
system.cpu.statIssuedInstType_0::SimdFloatMultAcc            0      0.00%     73.89% # Number of instructions issued per FU type, per thread (Count)
system.cpu.statIssuedInstType_0::SimdFloatSqrt            0      0.00%     73.89% # Number of instructions issued per FU type, per thread (Count)
system.cpu.statIssuedInstType_0::SimdReduceAdd            0      0.00%     73.89% # Number of instructions issued per FU type, per thread (Count)
system.cpu.statIssuedInstType_0::SimdReduceAlu            0      0.00%     73.89% # Number of instructions issued per FU type, per thread (Count)
system.cpu.statIssuedInstType_0::SimdReduceCmp            0      0.00%     73.89% # Number of instructions issued per FU type, per thread (Count)
system.cpu.statIssuedInstType_0::SimdFloatReduceAdd            0      0.00%     73.89% # Number of instructions issued per FU type, per thread (Count)
system.cpu.statIssuedInstType_0::SimdFloatReduceCmp            0      0.00%     73.89% # Number of instructions issued per FU type, per thread (Count)
system.cpu.statIssuedInstType_0::SimdAes            0      0.00%     73.89% # Number of instructions issued per FU type, per thread (Count)
system.cpu.statIssuedInstType_0::SimdAesMix            0      0.00%     73.89% # Number of instructions issued per FU type, per thread (Count)
system.cpu.statIssuedInstType_0::SimdSha1Hash            0      0.00%     73.89% # Number of instructions issued per FU type, per thread (Count)
system.cpu.statIssuedInstType_0::SimdSha1Hash2            0      0.00%     73.89% # Number of instructions issued per FU type, per thread (Count)
system.cpu.statIssuedInstType_0::SimdSha256Hash            0      0.00%     73.89% # Number of instructions issued per FU type, per thread (Count)
system.cpu.statIssuedInstType_0::SimdSha256Hash2            0      0.00%     73.89% # Number of instructions issued per FU type, per thread (Count)
system.cpu.statIssuedInstType_0::SimdShaSigma2            0      0.00%     73.89% # Number of instructions issued per FU type, per thread (Count)
system.cpu.statIssuedInstType_0::SimdShaSigma3            0      0.00%     73.89% # Number of instructions issued per FU type, per thread (Count)
system.cpu.statIssuedInstType_0::SimdPredAlu            0      0.00%     73.89% # Number of instructions issued per FU type, per thread (Count)
system.cpu.statIssuedInstType_0::MemRead      7719497     18.06%     91.95% # Number of instructions issued per FU type, per thread (Count)
system.cpu.statIssuedInstType_0::MemWrite      3371718      7.89%     99.83% # Number of instructions issued per FU type, per thread (Count)
system.cpu.statIssuedInstType_0::FloatMemRead        70924      0.17%    100.00% # Number of instructions issued per FU type, per thread (Count)
system.cpu.statIssuedInstType_0::FloatMemWrite           80      0.00%    100.00% # Number of instructions issued per FU type, per thread (Count)
system.cpu.statIssuedInstType_0::IprAccess            0      0.00%    100.00% # Number of instructions issued per FU type, per thread (Count)
system.cpu.statIssuedInstType_0::InstPrefetch            0      0.00%    100.00% # Number of instructions issued per FU type, per thread (Count)
system.cpu.statIssuedInstType_0::total       42745938                       # Number of instructions issued per FU type, per thread (Count)
system.cpu.issueRate                         1.013491                       # Inst issue rate ((Count/Cycle))
system.cpu.fuBusy                               34702                       # FU busy when requested (Count)
system.cpu.fuBusyRate                        0.000812                       # FU busy rate (busy events/executed inst) ((Count/Count))
system.cpu.intInstQueueReads                124033356                       # Number of integer instruction queue reads (Count)
system.cpu.intInstQueueWrites                47267991                       # Number of integer instruction queue writes (Count)
system.cpu.intInstQueueWakeupAccesses        41453552                       # Number of integer instruction queue wakeup accesses (Count)
system.cpu.fpInstQueueReads                   1630054                       # Number of floating instruction queue reads (Count)
system.cpu.fpInstQueueWrites                   815079                       # Number of floating instruction queue writes (Count)
system.cpu.fpInstQueueWakeupAccesses           815011                       # Number of floating instruction queue wakeup accesses (Count)
system.cpu.vecInstQueueReads                        0                       # Number of vector instruction queue reads (Count)
system.cpu.vecInstQueueWrites                       0                       # Number of vector instruction queue writes (Count)
system.cpu.vecInstQueueWakeupAccesses               0                       # Number of vector instruction queue wakeup accesses (Count)
system.cpu.intAluAccesses                    41911428                       # Number of integer alu accesses (Count)
system.cpu.fpAluAccesses                       815037                       # Number of floating point alu accesses (Count)
system.cpu.vecAluAccesses                           0                       # Number of vector alu accesses (Count)
system.cpu.numInsts                          42495460                       # Number of executed instructions (Count)
system.cpu.numLoadInsts                       7689707                       # Number of load instructions executed (Count)
system.cpu.numSquashedInsts                    250478                       # Number of squashed instructions skipped in execute (Count)
system.cpu.numSwp                                   0                       # Number of swp insts executed (Count)
system.cpu.numNop                                   0                       # Number of nop insts executed (Count)
system.cpu.numRefs                           11026769                       # Number of memory reference insts executed (Count)
system.cpu.numBranches                        4072723                       # Number of branches executed (Count)
system.cpu.numStoreInsts                      3337062                       # Number of stores executed (Count)
system.cpu.numRate                           1.007552                       # Inst execution rate ((Count/Cycle))
system.cpu.timesIdled                          676316                       # Number of times that the entire CPU went into an idle state and unscheduled itself (Count)
system.cpu.idleCycles                         2040273                       # Total number of cycles that the CPU has spent unscheduled due to idling (Cycle)
system.cpu.committedInsts                    21343836                       # Number of Instructions Simulated (Count)
system.cpu.committedOps                      39396425                       # Number of Ops (including micro ops) Simulated (Count)
system.cpu.cpi                               1.976071                       # CPI: Cycles Per Instruction ((Cycle/Count))
system.cpu.totalCpi                          1.976071                       # CPI: Total CPI of All Threads ((Cycle/Count))
system.cpu.ipc                               0.506055                       # IPC: Instructions Per Cycle ((Count/Cycle))
system.cpu.totalIpc                          0.506055                       # IPC: Total IPC of All Threads ((Count/Cycle))
system.cpu.intRegfileReads                   53704065                       # Number of integer regfile reads (Count)
system.cpu.intRegfileWrites                  31598594                       # Number of integer regfile writes (Count)
system.cpu.fpRegfileReads                     1452615                       # Number of floating regfile reads (Count)
system.cpu.fpRegfileWrites                     673190                       # Number of floating regfile writes (Count)
system.cpu.ccRegfileReads                    19906891                       # number of cc regfile reads (Count)
system.cpu.ccRegfileWrites                   13169361                       # number of cc regfile writes (Count)
system.cpu.miscRegfileReads                  19458508                       # number of misc regfile reads (Count)
system.cpu.miscRegfileWrites                       18                       # number of misc regfile writes (Count)
system.cpu.MemDepUnit__0.insertedLoads        7990805                       # Number of loads inserted to the mem dependence unit. (Count)
system.cpu.MemDepUnit__0.insertedStores       3454691                       # Number of stores inserted to the mem dependence unit. (Count)
system.cpu.MemDepUnit__0.conflictingLoads       979191                       # Number of conflicting loads. (Count)
system.cpu.MemDepUnit__0.conflictingStores       127817                       # Number of conflicting stores. (Count)
system.cpu.MemDepUnit__1.insertedLoads              0                       # Number of loads inserted to the mem dependence unit. (Count)
system.cpu.MemDepUnit__1.insertedStores             0                       # Number of stores inserted to the mem dependence unit. (Count)
system.cpu.MemDepUnit__1.conflictingLoads            0                       # Number of conflicting loads. (Count)
system.cpu.MemDepUnit__1.conflictingStores            0                       # Number of conflicting stores. (Count)
system.cpu.MemDepUnit__2.insertedLoads              0                       # Number of loads inserted to the mem dependence unit. (Count)
system.cpu.MemDepUnit__2.insertedStores             0                       # Number of stores inserted to the mem dependence unit. (Count)
system.cpu.MemDepUnit__2.conflictingLoads            0                       # Number of conflicting loads. (Count)
system.cpu.MemDepUnit__2.conflictingStores            0                       # Number of conflicting stores. (Count)
system.cpu.MemDepUnit__3.insertedLoads              0                       # Number of loads inserted to the mem dependence unit. (Count)
system.cpu.MemDepUnit__3.insertedStores             0                       # Number of stores inserted to the mem dependence unit. (Count)
system.cpu.MemDepUnit__3.conflictingLoads            0                       # Number of conflicting loads. (Count)
system.cpu.MemDepUnit__3.conflictingStores            0                       # Number of conflicting stores. (Count)
system.cpu.branchPred.lookups                 4826146                       # Number of BP lookups (Count)
system.cpu.branchPred.condPredicted           3625553                       # Number of conditional branches predicted (Count)
system.cpu.branchPred.condIncorrect            246302                       # Number of conditional branches incorrect (Count)
system.cpu.branchPred.BTBLookups              2617882                       # Number of BTB lookups (Count)
system.cpu.branchPred.BTBHits                 2544056                       # Number of BTB hits (Count)
system.cpu.branchPred.BTBHitRatio            0.971799                       # BTB Hit Ratio (Ratio)
system.cpu.branchPred.RASUsed                  344134                       # Number of times the RAS was used to get a target. (Count)
system.cpu.branchPred.RASIncorrect                683                       # Number of incorrect RAS predictions. (Count)
system.cpu.branchPred.indirectLookups          160264                       # Number of indirect predictor lookups. (Count)
system.cpu.branchPred.indirectHits             159635                       # Number of indirect target hits. (Count)
system.cpu.branchPred.indirectMisses              629                       # Number of indirect misses. (Count)
system.cpu.branchPred.indirectMispredicted          148                       # Number of mispredicted indirect branches. (Count)
system.cpu.branchPred.loop_predictor.correct      2524532                       # Number of times the loop predictor is the provider and the prediction is correct (Count)
system.cpu.branchPred.loop_predictor.wrong       327902                       # Number of times the loop predictor is the provider and the prediction is wrong (Count)
system.cpu.branchPred.tage.longestMatchProviderCorrect      1224026                       # Number of times TAGE Longest Match is the provider and the prediction is correct (Count)
system.cpu.branchPred.tage.altMatchProviderCorrect        41318                       # Number of times TAGE Alt Match is the provider and the prediction is correct (Count)
system.cpu.branchPred.tage.bimodalAltMatchProviderCorrect          837                       # Number of times TAGE Alt Match is the bimodal and it is the provider and the prediction is correct (Count)
system.cpu.branchPred.tage.bimodalProviderCorrect      1422777                       # Number of times there are no hits on the TAGE tables and the bimodal prediction is correct (Count)
system.cpu.branchPred.tage.longestMatchProviderWrong       106823                       # Number of times TAGE Longest Match is the provider and the prediction is wrong (Count)
system.cpu.branchPred.tage.altMatchProviderWrong        27896                       # Number of times TAGE Alt Match is the provider and the prediction is wrong (Count)
system.cpu.branchPred.tage.bimodalAltMatchProviderWrong          408                       # Number of times TAGE Alt Match is the bimodal and it is the provider and the prediction is wrong (Count)
system.cpu.branchPred.tage.bimodalProviderWrong          864                       # Number of times there are no hits on the TAGE tables and the bimodal prediction is wrong (Count)
system.cpu.branchPred.tage.altMatchProviderWouldHaveHit        34099                       # Number of times TAGE Longest Match is the provider, the prediction is wrong and Alt Match prediction was correct (Count)
system.cpu.branchPred.tage.longestMatchProviderWouldHaveHit        15369                       # Number of times TAGE Alt Match is the provider, the prediction is wrong and Longest Match prediction was correct (Count)
system.cpu.branchPred.tage.longestMatchProvider::0            0                       # TAGE provider for longest match (Count)
system.cpu.branchPred.tage.longestMatchProvider::1       325872                       # TAGE provider for longest match (Count)
system.cpu.branchPred.tage.longestMatchProvider::2       327413                       # TAGE provider for longest match (Count)
system.cpu.branchPred.tage.longestMatchProvider::3       316421                       # TAGE provider for longest match (Count)
system.cpu.branchPred.tage.longestMatchProvider::4       224837                       # TAGE provider for longest match (Count)
system.cpu.branchPred.tage.longestMatchProvider::5        68385                       # TAGE provider for longest match (Count)
system.cpu.branchPred.tage.longestMatchProvider::6        36320                       # TAGE provider for longest match (Count)
system.cpu.branchPred.tage.longestMatchProvider::7        15426                       # TAGE provider for longest match (Count)
system.cpu.branchPred.tage.longestMatchProvider::8        21976                       # TAGE provider for longest match (Count)
system.cpu.branchPred.tage.longestMatchProvider::9        21414                       # TAGE provider for longest match (Count)
system.cpu.branchPred.tage.longestMatchProvider::10        21281                       # TAGE provider for longest match (Count)
system.cpu.branchPred.tage.longestMatchProvider::11        10688                       # TAGE provider for longest match (Count)
system.cpu.branchPred.tage.longestMatchProvider::12        10030                       # TAGE provider for longest match (Count)
system.cpu.branchPred.tage.altMatchProvider::0       722214                       # TAGE provider for alt match (Count)
system.cpu.branchPred.tage.altMatchProvider::1       115898                       # TAGE provider for alt match (Count)
system.cpu.branchPred.tage.altMatchProvider::2       181915                       # TAGE provider for alt match (Count)
system.cpu.branchPred.tage.altMatchProvider::3       234502                       # TAGE provider for alt match (Count)
system.cpu.branchPred.tage.altMatchProvider::4        50673                       # TAGE provider for alt match (Count)
system.cpu.branchPred.tage.altMatchProvider::5        23599                       # TAGE provider for alt match (Count)
system.cpu.branchPred.tage.altMatchProvider::6        12830                       # TAGE provider for alt match (Count)
system.cpu.branchPred.tage.altMatchProvider::7        11066                       # TAGE provider for alt match (Count)
system.cpu.branchPred.tage.altMatchProvider::8        15474                       # TAGE provider for alt match (Count)
system.cpu.branchPred.tage.altMatchProvider::9        13569                       # TAGE provider for alt match (Count)
system.cpu.branchPred.tage.altMatchProvider::10        10813                       # TAGE provider for alt match (Count)
system.cpu.branchPred.tage.altMatchProvider::11         7510                       # TAGE provider for alt match (Count)
system.cpu.branchPred.tage.altMatchProvider::12            0                       # TAGE provider for alt match (Count)
system.cpu.commit.commitSquashedInsts         3864283                       # The number of squashed insts skipped by commit (Count)
system.cpu.commit.commitNonSpecStalls              18                       # The number of times commit has been forced to stall to communicate backwards (Count)
system.cpu.commit.branchMispredicts            192931                       # The number of times a branch was mispredicted (Count)
system.cpu.commit.numCommittedDist::samples     39533027                       # Number of insts commited each cycle (Count)
system.cpu.commit.numCommittedDist::mean     0.996545                       # Number of insts commited each cycle (Count)
system.cpu.commit.numCommittedDist::stdev     1.816483                       # Number of insts commited each cycle (Count)
system.cpu.commit.numCommittedDist::underflows            0      0.00%      0.00% # Number of insts commited each cycle (Count)
system.cpu.commit.numCommittedDist::0        25171214     63.67%     63.67% # Number of insts commited each cycle (Count)
system.cpu.commit.numCommittedDist::1         5368734     13.58%     77.25% # Number of insts commited each cycle (Count)
system.cpu.commit.numCommittedDist::2         2783587      7.04%     84.29% # Number of insts commited each cycle (Count)
system.cpu.commit.numCommittedDist::3         3019614      7.64%     91.93% # Number of insts commited each cycle (Count)
system.cpu.commit.numCommittedDist::4          744385      1.88%     93.81% # Number of insts commited each cycle (Count)
system.cpu.commit.numCommittedDist::5          636710      1.61%     95.42% # Number of insts commited each cycle (Count)
system.cpu.commit.numCommittedDist::6          439695      1.11%     96.54% # Number of insts commited each cycle (Count)
system.cpu.commit.numCommittedDist::7          350289      0.89%     97.42% # Number of insts commited each cycle (Count)
system.cpu.commit.numCommittedDist::8         1018799      2.58%    100.00% # Number of insts commited each cycle (Count)
system.cpu.commit.numCommittedDist::overflows            0      0.00%    100.00% # Number of insts commited each cycle (Count)
system.cpu.commit.numCommittedDist::min_value            0                       # Number of insts commited each cycle (Count)
system.cpu.commit.numCommittedDist::max_value            8                       # Number of insts commited each cycle (Count)
system.cpu.commit.numCommittedDist::total     39533027                       # Number of insts commited each cycle (Count)
system.cpu.commit.instsCommitted             21343836                       # Number of instructions committed (Count)
system.cpu.commit.opsCommitted               39396425                       # Number of ops (including micro ops) committed (Count)
system.cpu.commit.memRefs                     9984452                       # Number of memory references committed (Count)
system.cpu.commit.loads                       6778153                       # Number of loads committed (Count)
system.cpu.commit.amos                              0                       # Number of atomic instructions committed (Count)
system.cpu.commit.membars                           0                       # Number of memory barriers committed (Count)
system.cpu.commit.branches                    3853625                       # Number of branches committed (Count)
system.cpu.commit.vectorInstructions                0                       # Number of committed Vector instructions. (Count)
system.cpu.commit.floating                     814975                       # Number of committed floating point instructions. (Count)
system.cpu.commit.integer                    38702115                       # Number of committed integer instructions. (Count)
system.cpu.commit.functionCalls                304177                       # Number of function calls committed. (Count)
system.cpu.commit.committedInstType_0::No_OpClass        53708      0.14%      0.14% # Class of committed instruction (Count)
system.cpu.commit.committedInstType_0::IntAlu     28464930     72.25%     72.39% # Class of committed instruction (Count)
system.cpu.commit.committedInstType_0::IntMult       128911      0.33%     72.72% # Class of committed instruction (Count)
system.cpu.commit.committedInstType_0::IntDiv       126710      0.32%     73.04% # Class of committed instruction (Count)
system.cpu.commit.committedInstType_0::FloatAdd        35441      0.09%     73.13% # Class of committed instruction (Count)
system.cpu.commit.committedInstType_0::FloatCmp            0      0.00%     73.13% # Class of committed instruction (Count)
system.cpu.commit.committedInstType_0::FloatCvt           32      0.00%     73.13% # Class of committed instruction (Count)
system.cpu.commit.committedInstType_0::FloatMult            0      0.00%     73.13% # Class of committed instruction (Count)
system.cpu.commit.committedInstType_0::FloatMultAcc            0      0.00%     73.13% # Class of committed instruction (Count)
system.cpu.commit.committedInstType_0::FloatDiv            0      0.00%     73.13% # Class of committed instruction (Count)
system.cpu.commit.committedInstType_0::FloatMisc            0      0.00%     73.13% # Class of committed instruction (Count)
system.cpu.commit.committedInstType_0::FloatSqrt            0      0.00%     73.13% # Class of committed instruction (Count)
system.cpu.commit.committedInstType_0::SimdAdd            0      0.00%     73.13% # Class of committed instruction (Count)
system.cpu.commit.committedInstType_0::SimdAddAcc            0      0.00%     73.13% # Class of committed instruction (Count)
system.cpu.commit.committedInstType_0::SimdAlu        70850      0.18%     73.31% # Class of committed instruction (Count)
system.cpu.commit.committedInstType_0::SimdCmp            0      0.00%     73.31% # Class of committed instruction (Count)
system.cpu.commit.committedInstType_0::SimdCvt       141708      0.36%     73.67% # Class of committed instruction (Count)
system.cpu.commit.committedInstType_0::SimdMisc       389683      0.99%     74.66% # Class of committed instruction (Count)
system.cpu.commit.committedInstType_0::SimdMult            0      0.00%     74.66% # Class of committed instruction (Count)
system.cpu.commit.committedInstType_0::SimdMultAcc            0      0.00%     74.66% # Class of committed instruction (Count)
system.cpu.commit.committedInstType_0::SimdShift            0      0.00%     74.66% # Class of committed instruction (Count)
system.cpu.commit.committedInstType_0::SimdShiftAcc            0      0.00%     74.66% # Class of committed instruction (Count)
system.cpu.commit.committedInstType_0::SimdDiv            0      0.00%     74.66% # Class of committed instruction (Count)
system.cpu.commit.committedInstType_0::SimdSqrt            0      0.00%     74.66% # Class of committed instruction (Count)
system.cpu.commit.committedInstType_0::SimdFloatAdd            0      0.00%     74.66% # Class of committed instruction (Count)
system.cpu.commit.committedInstType_0::SimdFloatAlu            0      0.00%     74.66% # Class of committed instruction (Count)
system.cpu.commit.committedInstType_0::SimdFloatCmp            0      0.00%     74.66% # Class of committed instruction (Count)
system.cpu.commit.committedInstType_0::SimdFloatCvt            0      0.00%     74.66% # Class of committed instruction (Count)
system.cpu.commit.committedInstType_0::SimdFloatDiv            0      0.00%     74.66% # Class of committed instruction (Count)
system.cpu.commit.committedInstType_0::SimdFloatMisc            0      0.00%     74.66% # Class of committed instruction (Count)
system.cpu.commit.committedInstType_0::SimdFloatMult            0      0.00%     74.66% # Class of committed instruction (Count)
system.cpu.commit.committedInstType_0::SimdFloatMultAcc            0      0.00%     74.66% # Class of committed instruction (Count)
system.cpu.commit.committedInstType_0::SimdFloatSqrt            0      0.00%     74.66% # Class of committed instruction (Count)
system.cpu.commit.committedInstType_0::SimdReduceAdd            0      0.00%     74.66% # Class of committed instruction (Count)
system.cpu.commit.committedInstType_0::SimdReduceAlu            0      0.00%     74.66% # Class of committed instruction (Count)
system.cpu.commit.committedInstType_0::SimdReduceCmp            0      0.00%     74.66% # Class of committed instruction (Count)
system.cpu.commit.committedInstType_0::SimdFloatReduceAdd            0      0.00%     74.66% # Class of committed instruction (Count)
system.cpu.commit.committedInstType_0::SimdFloatReduceCmp            0      0.00%     74.66% # Class of committed instruction (Count)
system.cpu.commit.committedInstType_0::SimdAes            0      0.00%     74.66% # Class of committed instruction (Count)
system.cpu.commit.committedInstType_0::SimdAesMix            0      0.00%     74.66% # Class of committed instruction (Count)
system.cpu.commit.committedInstType_0::SimdSha1Hash            0      0.00%     74.66% # Class of committed instruction (Count)
system.cpu.commit.committedInstType_0::SimdSha1Hash2            0      0.00%     74.66% # Class of committed instruction (Count)
system.cpu.commit.committedInstType_0::SimdSha256Hash            0      0.00%     74.66% # Class of committed instruction (Count)
system.cpu.commit.committedInstType_0::SimdSha256Hash2            0      0.00%     74.66% # Class of committed instruction (Count)
system.cpu.commit.committedInstType_0::SimdShaSigma2            0      0.00%     74.66% # Class of committed instruction (Count)
system.cpu.commit.committedInstType_0::SimdShaSigma3            0      0.00%     74.66% # Class of committed instruction (Count)
system.cpu.commit.committedInstType_0::SimdPredAlu            0      0.00%     74.66% # Class of committed instruction (Count)
system.cpu.commit.committedInstType_0::MemRead      6707235     17.02%     91.68% # Class of committed instruction (Count)
system.cpu.commit.committedInstType_0::MemWrite      3206235      8.14%     99.82% # Class of committed instruction (Count)
system.cpu.commit.committedInstType_0::FloatMemRead        70918      0.18%    100.00% # Class of committed instruction (Count)
system.cpu.commit.committedInstType_0::FloatMemWrite           64      0.00%    100.00% # Class of committed instruction (Count)
system.cpu.commit.committedInstType_0::IprAccess            0      0.00%    100.00% # Class of committed instruction (Count)
system.cpu.commit.committedInstType_0::InstPrefetch            0      0.00%    100.00% # Class of committed instruction (Count)
system.cpu.commit.committedInstType_0::total     39396425                       # Class of committed instruction (Count)
system.cpu.commit.commitEligibleSamples       1018799                       # number cycles where commit BW limit reached (Cycle)
system.cpu.dcache.demandHits::cpu.data        9450035                       # number of demand (read+write) hits (Count)
system.cpu.dcache.demandHits::total           9450035                       # number of demand (read+write) hits (Count)
system.cpu.dcache.overallHits::cpu.data       9450035                       # number of overall hits (Count)
system.cpu.dcache.overallHits::total          9450035                       # number of overall hits (Count)
system.cpu.dcache.demandMisses::cpu.data       119229                       # number of demand (read+write) misses (Count)
system.cpu.dcache.demandMisses::total          119229                       # number of demand (read+write) misses (Count)
system.cpu.dcache.overallMisses::cpu.data       119229                       # number of overall misses (Count)
system.cpu.dcache.overallMisses::total         119229                       # number of overall misses (Count)
system.cpu.dcache.demandMissLatency::cpu.data   2086194993                       # number of demand (read+write) miss ticks (Tick)
system.cpu.dcache.demandMissLatency::total   2086194993                       # number of demand (read+write) miss ticks (Tick)
system.cpu.dcache.overallMissLatency::cpu.data   2086194993                       # number of overall miss ticks (Tick)
system.cpu.dcache.overallMissLatency::total   2086194993                       # number of overall miss ticks (Tick)
system.cpu.dcache.demandAccesses::cpu.data      9569264                       # number of demand (read+write) accesses (Count)
system.cpu.dcache.demandAccesses::total       9569264                       # number of demand (read+write) accesses (Count)
system.cpu.dcache.overallAccesses::cpu.data      9569264                       # number of overall (read+write) accesses (Count)
system.cpu.dcache.overallAccesses::total      9569264                       # number of overall (read+write) accesses (Count)
system.cpu.dcache.demandMissRate::cpu.data     0.012460                       # miss rate for demand accesses (Ratio)
system.cpu.dcache.demandMissRate::total      0.012460                       # miss rate for demand accesses (Ratio)
system.cpu.dcache.overallMissRate::cpu.data     0.012460                       # miss rate for overall accesses (Ratio)
system.cpu.dcache.overallMissRate::total     0.012460                       # miss rate for overall accesses (Ratio)
system.cpu.dcache.demandAvgMissLatency::cpu.data 17497.378935                       # average overall miss latency in ticks ((Tick/Count))
system.cpu.dcache.demandAvgMissLatency::total 17497.378935                       # average overall miss latency in ticks ((Tick/Count))
system.cpu.dcache.overallAvgMissLatency::cpu.data 17497.378935                       # average overall miss latency ((Tick/Count))
system.cpu.dcache.overallAvgMissLatency::total 17497.378935                       # average overall miss latency ((Tick/Count))
system.cpu.dcache.blockedCycles::no_mshrs         3596                       # number of cycles access was blocked (Cycle)
system.cpu.dcache.blockedCycles::no_targets            0                       # number of cycles access was blocked (Cycle)
system.cpu.dcache.blockedCauses::no_mshrs          146                       # number of times access was blocked (Count)
system.cpu.dcache.blockedCauses::no_targets            0                       # number of times access was blocked (Count)
system.cpu.dcache.avgBlocked::no_mshrs      24.630137                       # average number of cycles each access was blocked ((Cycle/Count))
system.cpu.dcache.avgBlocked::no_targets          nan                       # average number of cycles each access was blocked ((Cycle/Count))
system.cpu.dcache.writebacks::writebacks        38772                       # number of writebacks (Count)
system.cpu.dcache.writebacks::total             38772                       # number of writebacks (Count)
system.cpu.dcache.demandMshrHits::cpu.data        29764                       # number of demand (read+write) MSHR hits (Count)
system.cpu.dcache.demandMshrHits::total         29764                       # number of demand (read+write) MSHR hits (Count)
system.cpu.dcache.overallMshrHits::cpu.data        29764                       # number of overall MSHR hits (Count)
system.cpu.dcache.overallMshrHits::total        29764                       # number of overall MSHR hits (Count)
system.cpu.dcache.demandMshrMisses::cpu.data        89465                       # number of demand (read+write) MSHR misses (Count)
system.cpu.dcache.demandMshrMisses::total        89465                       # number of demand (read+write) MSHR misses (Count)
system.cpu.dcache.overallMshrMisses::cpu.data        89465                       # number of overall MSHR misses (Count)
system.cpu.dcache.overallMshrMisses::total        89465                       # number of overall MSHR misses (Count)
system.cpu.dcache.demandMshrMissLatency::cpu.data   1406760493                       # number of demand (read+write) MSHR miss ticks (Tick)
system.cpu.dcache.demandMshrMissLatency::total   1406760493                       # number of demand (read+write) MSHR miss ticks (Tick)
system.cpu.dcache.overallMshrMissLatency::cpu.data   1406760493                       # number of overall MSHR miss ticks (Tick)
system.cpu.dcache.overallMshrMissLatency::total   1406760493                       # number of overall MSHR miss ticks (Tick)
system.cpu.dcache.demandMshrMissRate::cpu.data     0.009349                       # mshr miss ratio for demand accesses (Ratio)
system.cpu.dcache.demandMshrMissRate::total     0.009349                       # mshr miss ratio for demand accesses (Ratio)
system.cpu.dcache.overallMshrMissRate::cpu.data     0.009349                       # mshr miss ratio for overall accesses (Ratio)
system.cpu.dcache.overallMshrMissRate::total     0.009349                       # mshr miss ratio for overall accesses (Ratio)
system.cpu.dcache.demandAvgMshrMissLatency::cpu.data 15724.143442                       # average overall mshr miss latency ((Tick/Count))
system.cpu.dcache.demandAvgMshrMissLatency::total 15724.143442                       # average overall mshr miss latency ((Tick/Count))
system.cpu.dcache.overallAvgMshrMissLatency::cpu.data 15724.143442                       # average overall mshr miss latency ((Tick/Count))
system.cpu.dcache.overallAvgMshrMissLatency::total 15724.143442                       # average overall mshr miss latency ((Tick/Count))
system.cpu.dcache.replacements                  89401                       # number of replacements (Count)
system.cpu.dcache.ReadReq.hits::cpu.data      6262828                       # number of ReadReq hits (Count)
system.cpu.dcache.ReadReq.hits::total         6262828                       # number of ReadReq hits (Count)
system.cpu.dcache.ReadReq.misses::cpu.data       100135                       # number of ReadReq misses (Count)
system.cpu.dcache.ReadReq.misses::total        100135                       # number of ReadReq misses (Count)
system.cpu.dcache.ReadReq.missLatency::cpu.data   1705467000                       # number of ReadReq miss ticks (Tick)
system.cpu.dcache.ReadReq.missLatency::total   1705467000                       # number of ReadReq miss ticks (Tick)
system.cpu.dcache.ReadReq.accesses::cpu.data      6362963                       # number of ReadReq accesses(hits+misses) (Count)
system.cpu.dcache.ReadReq.accesses::total      6362963                       # number of ReadReq accesses(hits+misses) (Count)
system.cpu.dcache.ReadReq.missRate::cpu.data     0.015737                       # miss rate for ReadReq accesses (Ratio)
system.cpu.dcache.ReadReq.missRate::total     0.015737                       # miss rate for ReadReq accesses (Ratio)
system.cpu.dcache.ReadReq.avgMissLatency::cpu.data 17031.677236                       # average ReadReq miss latency ((Tick/Count))
system.cpu.dcache.ReadReq.avgMissLatency::total 17031.677236                       # average ReadReq miss latency ((Tick/Count))
system.cpu.dcache.ReadReq.mshrHits::cpu.data        29745                       # number of ReadReq MSHR hits (Count)
system.cpu.dcache.ReadReq.mshrHits::total        29745                       # number of ReadReq MSHR hits (Count)
system.cpu.dcache.ReadReq.mshrMisses::cpu.data        70390                       # number of ReadReq MSHR misses (Count)
system.cpu.dcache.ReadReq.mshrMisses::total        70390                       # number of ReadReq MSHR misses (Count)
system.cpu.dcache.ReadReq.mshrMissLatency::cpu.data   1045698500                       # number of ReadReq MSHR miss ticks (Tick)
system.cpu.dcache.ReadReq.mshrMissLatency::total   1045698500                       # number of ReadReq MSHR miss ticks (Tick)
system.cpu.dcache.ReadReq.mshrMissRate::cpu.data     0.011062                       # mshr miss rate for ReadReq accesses (Ratio)
system.cpu.dcache.ReadReq.mshrMissRate::total     0.011062                       # mshr miss rate for ReadReq accesses (Ratio)
system.cpu.dcache.ReadReq.avgMshrMissLatency::cpu.data 14855.782071                       # average ReadReq mshr miss latency ((Tick/Count))
system.cpu.dcache.ReadReq.avgMshrMissLatency::total 14855.782071                       # average ReadReq mshr miss latency ((Tick/Count))
system.cpu.dcache.WriteReq.hits::cpu.data      3187207                       # number of WriteReq hits (Count)
system.cpu.dcache.WriteReq.hits::total        3187207                       # number of WriteReq hits (Count)
system.cpu.dcache.WriteReq.misses::cpu.data        19094                       # number of WriteReq misses (Count)
system.cpu.dcache.WriteReq.misses::total        19094                       # number of WriteReq misses (Count)
system.cpu.dcache.WriteReq.missLatency::cpu.data    380727993                       # number of WriteReq miss ticks (Tick)
system.cpu.dcache.WriteReq.missLatency::total    380727993                       # number of WriteReq miss ticks (Tick)
system.cpu.dcache.WriteReq.accesses::cpu.data      3206301                       # number of WriteReq accesses(hits+misses) (Count)
system.cpu.dcache.WriteReq.accesses::total      3206301                       # number of WriteReq accesses(hits+misses) (Count)
system.cpu.dcache.WriteReq.missRate::cpu.data     0.005955                       # miss rate for WriteReq accesses (Ratio)
system.cpu.dcache.WriteReq.missRate::total     0.005955                       # miss rate for WriteReq accesses (Ratio)
system.cpu.dcache.WriteReq.avgMissLatency::cpu.data 19939.666544                       # average WriteReq miss latency ((Tick/Count))
system.cpu.dcache.WriteReq.avgMissLatency::total 19939.666544                       # average WriteReq miss latency ((Tick/Count))
system.cpu.dcache.WriteReq.mshrHits::cpu.data           19                       # number of WriteReq MSHR hits (Count)
system.cpu.dcache.WriteReq.mshrHits::total           19                       # number of WriteReq MSHR hits (Count)
system.cpu.dcache.WriteReq.mshrMisses::cpu.data        19075                       # number of WriteReq MSHR misses (Count)
system.cpu.dcache.WriteReq.mshrMisses::total        19075                       # number of WriteReq MSHR misses (Count)
system.cpu.dcache.WriteReq.mshrMissLatency::cpu.data    361061993                       # number of WriteReq MSHR miss ticks (Tick)
system.cpu.dcache.WriteReq.mshrMissLatency::total    361061993                       # number of WriteReq MSHR miss ticks (Tick)
system.cpu.dcache.WriteReq.mshrMissRate::cpu.data     0.005949                       # mshr miss rate for WriteReq accesses (Ratio)
system.cpu.dcache.WriteReq.mshrMissRate::total     0.005949                       # mshr miss rate for WriteReq accesses (Ratio)
system.cpu.dcache.WriteReq.avgMshrMissLatency::cpu.data 18928.544849                       # average WriteReq mshr miss latency ((Tick/Count))
system.cpu.dcache.WriteReq.avgMshrMissLatency::total 18928.544849                       # average WriteReq mshr miss latency ((Tick/Count))
system.cpu.dcache.power_state.pwrStateResidencyTicks::UNDEFINED  21088466000                       # Cumulative time (in ticks) in various power states (Tick)
system.cpu.dcache.tags.tagsInUse            63.990615                       # Average ticks per tags in use ((Tick/Count))
system.cpu.dcache.tags.totalRefs              9539500                       # Total number of references to valid blocks. (Count)
system.cpu.dcache.tags.sampledRefs              89465                       # Sample count of references to valid blocks. (Count)
system.cpu.dcache.tags.avgRefs             106.628290                       # Average number of references to valid blocks. ((Count/Count))
system.cpu.dcache.tags.warmupTick            12049000                       # The tick when the warmup percentage was hit. (Tick)
system.cpu.dcache.tags.occupancies::cpu.data    63.990615                       # Average occupied blocks per tick, per requestor ((Count/Tick))
system.cpu.dcache.tags.avgOccs::cpu.data     0.999853                       # Average percentage of cache occupancy ((Ratio/Tick))
system.cpu.dcache.tags.avgOccs::total        0.999853                       # Average percentage of cache occupancy ((Ratio/Tick))
system.cpu.dcache.tags.occupanciesTaskId::1024           64                       # Occupied blocks per task id (Count)
system.cpu.dcache.tags.ageTaskId_1024::0           46                       # Occupied blocks per task id, per block age (Count)
system.cpu.dcache.tags.ageTaskId_1024::1            2                       # Occupied blocks per task id, per block age (Count)
system.cpu.dcache.tags.ageTaskId_1024::2           12                       # Occupied blocks per task id, per block age (Count)
system.cpu.dcache.tags.ageTaskId_1024::3            4                       # Occupied blocks per task id, per block age (Count)
system.cpu.dcache.tags.ratioOccsTaskId::1024            1                       # Ratio of occupied blocks and all blocks, per task id (Ratio)
system.cpu.dcache.tags.tagAccesses           19227993                       # Number of tag accesses (Count)
system.cpu.dcache.tags.dataAccesses          19227993                       # Number of data accesses (Count)
system.cpu.dcache.tags.power_state.pwrStateResidencyTicks::UNDEFINED  21088466000                       # Cumulative time (in ticks) in various power states (Tick)
system.cpu.decode.idleCycles                 24696393                       # Number of cycles decode is idle (Cycle)
system.cpu.decode.blockedCycles               8360515                       # Number of cycles decode is blocked (Cycle)
system.cpu.decode.runCycles                   4813541                       # Number of cycles decode is running (Cycle)
system.cpu.decode.unblockCycles               2055093                       # Number of cycles decode is unblocking (Cycle)
system.cpu.decode.squashCycles                 211118                       # Number of cycles decode is squashing (Cycle)
system.cpu.decode.branchResolved              2276662                       # Number of times decode resolved a branch (Count)
system.cpu.decode.branchMispred                 53578                       # Number of times decode detected a branch misprediction (Count)
system.cpu.decode.decodedInsts               45103402                       # Number of instructions handled by decode (Count)
system.cpu.decode.squashedInsts                143692                       # Number of squashed instructions handled by decode (Count)
system.cpu.fetch.icacheStallCycles           27500047                       # Number of cycles fetch is stalled on an Icache miss (Cycle)
system.cpu.fetch.insts                       28792527                       # Number of instructions fetch has processed (Count)
system.cpu.fetch.branches                     4826146                       # Number of branches that fetch encountered (Count)
system.cpu.fetch.predictedBranches            3047825                       # Number of branches that fetch has predicted taken (Count)
system.cpu.fetch.cycles                      12369875                       # Number of cycles fetch has run and was not squashing or blocked (Cycle)
system.cpu.fetch.squashCycles                  529386                       # Number of cycles fetch has spent squashing (Cycle)
system.cpu.fetch.miscStallCycles                  221                       # Number of cycles fetch has spent waiting on interrupts, or bad addresses, or out of MSHRs (Cycle)
system.cpu.fetch.pendingTrapStallCycles          1806                       # Number of stall cycles due to pending traps (Cycle)
system.cpu.fetch.icacheWaitRetryStallCycles           18                       # Number of stall cycles due to full MSHR (Cycle)
system.cpu.fetch.cacheLines                   4100465                       # Number of cache lines fetched (Count)
system.cpu.fetch.icacheSquashes                112374                       # Number of outstanding Icache misses that were squashed (Count)
system.cpu.fetch.nisnDist::samples           40136660                       # Number of instructions fetched each cycle (Total) (Count)
system.cpu.fetch.nisnDist::mean              1.272372                       # Number of instructions fetched each cycle (Total) (Count)
system.cpu.fetch.nisnDist::stdev             2.694255                       # Number of instructions fetched each cycle (Total) (Count)
system.cpu.fetch.nisnDist::underflows               0      0.00%      0.00% # Number of instructions fetched each cycle (Total) (Count)
system.cpu.fetch.nisnDist::0                 31627128     78.80%     78.80% # Number of instructions fetched each cycle (Total) (Count)
system.cpu.fetch.nisnDist::1                   683042      1.70%     80.50% # Number of instructions fetched each cycle (Total) (Count)
system.cpu.fetch.nisnDist::2                   389734      0.97%     81.47% # Number of instructions fetched each cycle (Total) (Count)
system.cpu.fetch.nisnDist::3                   708754      1.77%     83.24% # Number of instructions fetched each cycle (Total) (Count)
system.cpu.fetch.nisnDist::4                   606934      1.51%     84.75% # Number of instructions fetched each cycle (Total) (Count)
system.cpu.fetch.nisnDist::5                   556267      1.39%     86.14% # Number of instructions fetched each cycle (Total) (Count)
system.cpu.fetch.nisnDist::6                   828733      2.06%     88.20% # Number of instructions fetched each cycle (Total) (Count)
system.cpu.fetch.nisnDist::7                   590007      1.47%     89.67% # Number of instructions fetched each cycle (Total) (Count)
system.cpu.fetch.nisnDist::8                  4146061     10.33%    100.00% # Number of instructions fetched each cycle (Total) (Count)
system.cpu.fetch.nisnDist::overflows                0      0.00%    100.00% # Number of instructions fetched each cycle (Total) (Count)
system.cpu.fetch.nisnDist::min_value                0                       # Number of instructions fetched each cycle (Total) (Count)
system.cpu.fetch.nisnDist::max_value                8                       # Number of instructions fetched each cycle (Total) (Count)
system.cpu.fetch.nisnDist::total             40136660                       # Number of instructions fetched each cycle (Total) (Count)
system.cpu.fetch.branchRate                  0.114426                       # Number of branch fetches per cycle (Ratio)
system.cpu.fetch.rate                        0.682661                       # Number of inst fetches per cycle ((Count/Cycle))
system.cpu.icache.demandHits::cpu.inst        2981383                       # number of demand (read+write) hits (Count)
system.cpu.icache.demandHits::total           2981383                       # number of demand (read+write) hits (Count)
system.cpu.icache.overallHits::cpu.inst       2981383                       # number of overall hits (Count)
system.cpu.icache.overallHits::total          2981383                       # number of overall hits (Count)
system.cpu.icache.demandMisses::cpu.inst      1119082                       # number of demand (read+write) misses (Count)
system.cpu.icache.demandMisses::total         1119082                       # number of demand (read+write) misses (Count)
system.cpu.icache.overallMisses::cpu.inst      1119082                       # number of overall misses (Count)
system.cpu.icache.overallMisses::total        1119082                       # number of overall misses (Count)
system.cpu.icache.demandMissLatency::cpu.inst  14426245500                       # number of demand (read+write) miss ticks (Tick)
system.cpu.icache.demandMissLatency::total  14426245500                       # number of demand (read+write) miss ticks (Tick)
system.cpu.icache.overallMissLatency::cpu.inst  14426245500                       # number of overall miss ticks (Tick)
system.cpu.icache.overallMissLatency::total  14426245500                       # number of overall miss ticks (Tick)
system.cpu.icache.demandAccesses::cpu.inst      4100465                       # number of demand (read+write) accesses (Count)
system.cpu.icache.demandAccesses::total       4100465                       # number of demand (read+write) accesses (Count)
system.cpu.icache.overallAccesses::cpu.inst      4100465                       # number of overall (read+write) accesses (Count)
system.cpu.icache.overallAccesses::total      4100465                       # number of overall (read+write) accesses (Count)
system.cpu.icache.demandMissRate::cpu.inst     0.272916                       # miss rate for demand accesses (Ratio)
system.cpu.icache.demandMissRate::total      0.272916                       # miss rate for demand accesses (Ratio)
system.cpu.icache.overallMissRate::cpu.inst     0.272916                       # miss rate for overall accesses (Ratio)
system.cpu.icache.overallMissRate::total     0.272916                       # miss rate for overall accesses (Ratio)
system.cpu.icache.demandAvgMissLatency::cpu.inst 12891.142472                       # average overall miss latency in ticks ((Tick/Count))
system.cpu.icache.demandAvgMissLatency::total 12891.142472                       # average overall miss latency in ticks ((Tick/Count))
system.cpu.icache.overallAvgMissLatency::cpu.inst 12891.142472                       # average overall miss latency ((Tick/Count))
system.cpu.icache.overallAvgMissLatency::total 12891.142472                       # average overall miss latency ((Tick/Count))
system.cpu.icache.blockedCycles::no_mshrs          350                       # number of cycles access was blocked (Cycle)
system.cpu.icache.blockedCycles::no_targets            0                       # number of cycles access was blocked (Cycle)
system.cpu.icache.blockedCauses::no_mshrs            3                       # number of times access was blocked (Count)
system.cpu.icache.blockedCauses::no_targets            0                       # number of times access was blocked (Count)
system.cpu.icache.avgBlocked::no_mshrs     116.666667                       # average number of cycles each access was blocked ((Cycle/Count))
system.cpu.icache.avgBlocked::no_targets          nan                       # average number of cycles each access was blocked ((Cycle/Count))
system.cpu.icache.demandMshrHits::cpu.inst        22505                       # number of demand (read+write) MSHR hits (Count)
system.cpu.icache.demandMshrHits::total         22505                       # number of demand (read+write) MSHR hits (Count)
system.cpu.icache.overallMshrHits::cpu.inst        22505                       # number of overall MSHR hits (Count)
system.cpu.icache.overallMshrHits::total        22505                       # number of overall MSHR hits (Count)
system.cpu.icache.demandMshrMisses::cpu.inst      1096577                       # number of demand (read+write) MSHR misses (Count)
system.cpu.icache.demandMshrMisses::total      1096577                       # number of demand (read+write) MSHR misses (Count)
system.cpu.icache.overallMshrMisses::cpu.inst      1096577                       # number of overall MSHR misses (Count)
system.cpu.icache.overallMshrMisses::total      1096577                       # number of overall MSHR misses (Count)
system.cpu.icache.demandMshrMissLatency::cpu.inst  13228525000                       # number of demand (read+write) MSHR miss ticks (Tick)
system.cpu.icache.demandMshrMissLatency::total  13228525000                       # number of demand (read+write) MSHR miss ticks (Tick)
system.cpu.icache.overallMshrMissLatency::cpu.inst  13228525000                       # number of overall MSHR miss ticks (Tick)
system.cpu.icache.overallMshrMissLatency::total  13228525000                       # number of overall MSHR miss ticks (Tick)
system.cpu.icache.demandMshrMissRate::cpu.inst     0.267427                       # mshr miss ratio for demand accesses (Ratio)
system.cpu.icache.demandMshrMissRate::total     0.267427                       # mshr miss ratio for demand accesses (Ratio)
system.cpu.icache.overallMshrMissRate::cpu.inst     0.267427                       # mshr miss ratio for overall accesses (Ratio)
system.cpu.icache.overallMshrMissRate::total     0.267427                       # mshr miss ratio for overall accesses (Ratio)
system.cpu.icache.demandAvgMshrMissLatency::cpu.inst 12063.471147                       # average overall mshr miss latency ((Tick/Count))
system.cpu.icache.demandAvgMshrMissLatency::total 12063.471147                       # average overall mshr miss latency ((Tick/Count))
system.cpu.icache.overallAvgMshrMissLatency::cpu.inst 12063.471147                       # average overall mshr miss latency ((Tick/Count))
system.cpu.icache.overallAvgMshrMissLatency::total 12063.471147                       # average overall mshr miss latency ((Tick/Count))
system.cpu.icache.replacements                1096512                       # number of replacements (Count)
system.cpu.icache.ReadReq.hits::cpu.inst      2981383                       # number of ReadReq hits (Count)
system.cpu.icache.ReadReq.hits::total         2981383                       # number of ReadReq hits (Count)
system.cpu.icache.ReadReq.misses::cpu.inst      1119082                       # number of ReadReq misses (Count)
system.cpu.icache.ReadReq.misses::total       1119082                       # number of ReadReq misses (Count)
system.cpu.icache.ReadReq.missLatency::cpu.inst  14426245500                       # number of ReadReq miss ticks (Tick)
system.cpu.icache.ReadReq.missLatency::total  14426245500                       # number of ReadReq miss ticks (Tick)
system.cpu.icache.ReadReq.accesses::cpu.inst      4100465                       # number of ReadReq accesses(hits+misses) (Count)
system.cpu.icache.ReadReq.accesses::total      4100465                       # number of ReadReq accesses(hits+misses) (Count)
system.cpu.icache.ReadReq.missRate::cpu.inst     0.272916                       # miss rate for ReadReq accesses (Ratio)
system.cpu.icache.ReadReq.missRate::total     0.272916                       # miss rate for ReadReq accesses (Ratio)
system.cpu.icache.ReadReq.avgMissLatency::cpu.inst 12891.142472                       # average ReadReq miss latency ((Tick/Count))
system.cpu.icache.ReadReq.avgMissLatency::total 12891.142472                       # average ReadReq miss latency ((Tick/Count))
system.cpu.icache.ReadReq.mshrHits::cpu.inst        22505                       # number of ReadReq MSHR hits (Count)
system.cpu.icache.ReadReq.mshrHits::total        22505                       # number of ReadReq MSHR hits (Count)
system.cpu.icache.ReadReq.mshrMisses::cpu.inst      1096577                       # number of ReadReq MSHR misses (Count)
system.cpu.icache.ReadReq.mshrMisses::total      1096577                       # number of ReadReq MSHR misses (Count)
system.cpu.icache.ReadReq.mshrMissLatency::cpu.inst  13228525000                       # number of ReadReq MSHR miss ticks (Tick)
system.cpu.icache.ReadReq.mshrMissLatency::total  13228525000                       # number of ReadReq MSHR miss ticks (Tick)
system.cpu.icache.ReadReq.mshrMissRate::cpu.inst     0.267427                       # mshr miss rate for ReadReq accesses (Ratio)
system.cpu.icache.ReadReq.mshrMissRate::total     0.267427                       # mshr miss rate for ReadReq accesses (Ratio)
system.cpu.icache.ReadReq.avgMshrMissLatency::cpu.inst 12063.471147                       # average ReadReq mshr miss latency ((Tick/Count))
system.cpu.icache.ReadReq.avgMshrMissLatency::total 12063.471147                       # average ReadReq mshr miss latency ((Tick/Count))
system.cpu.icache.power_state.pwrStateResidencyTicks::UNDEFINED  21088466000                       # Cumulative time (in ticks) in various power states (Tick)
system.cpu.icache.tags.tagsInUse            63.988458                       # Average ticks per tags in use ((Tick/Count))
system.cpu.icache.tags.totalRefs              4077959                       # Total number of references to valid blocks. (Count)
system.cpu.icache.tags.sampledRefs            1096576                       # Sample count of references to valid blocks. (Count)
system.cpu.icache.tags.avgRefs               3.718811                       # Average number of references to valid blocks. ((Count/Count))
system.cpu.icache.tags.warmupTick             7559500                       # The tick when the warmup percentage was hit. (Tick)
system.cpu.icache.tags.occupancies::cpu.inst    63.988458                       # Average occupied blocks per tick, per requestor ((Count/Tick))
system.cpu.icache.tags.avgOccs::cpu.inst     0.999820                       # Average percentage of cache occupancy ((Ratio/Tick))
system.cpu.icache.tags.avgOccs::total        0.999820                       # Average percentage of cache occupancy ((Ratio/Tick))
system.cpu.icache.tags.occupanciesTaskId::1024           64                       # Occupied blocks per task id (Count)
system.cpu.icache.tags.ageTaskId_1024::0           57                       # Occupied blocks per task id, per block age (Count)
system.cpu.icache.tags.ageTaskId_1024::1            1                       # Occupied blocks per task id, per block age (Count)
system.cpu.icache.tags.ageTaskId_1024::3            1                       # Occupied blocks per task id, per block age (Count)
system.cpu.icache.tags.ageTaskId_1024::4            5                       # Occupied blocks per task id, per block age (Count)
system.cpu.icache.tags.ratioOccsTaskId::1024            1                       # Ratio of occupied blocks and all blocks, per task id (Ratio)
system.cpu.icache.tags.tagAccesses            9297506                       # Number of tag accesses (Count)
system.cpu.icache.tags.dataAccesses           9297506                       # Number of data accesses (Count)
system.cpu.icache.tags.power_state.pwrStateResidencyTicks::UNDEFINED  21088466000                       # Cumulative time (in ticks) in various power states (Tick)
system.cpu.iew.idleCycles                           0                       # Number of cycles IEW is idle (Cycle)
system.cpu.iew.squashCycles                    211118                       # Number of cycles IEW is squashing (Cycle)
system.cpu.iew.blockCycles                     392515                       # Number of cycles IEW is blocking (Cycle)
system.cpu.iew.unblockCycles                      551                       # Number of cycles IEW is unblocking (Cycle)
system.cpu.iew.dispatchedInsts               43739555                       # Number of instructions dispatched to IQ (Count)
system.cpu.iew.dispSquashedInsts                14293                       # Number of squashed instructions skipped by dispatch (Count)
system.cpu.iew.dispLoadInsts                  7990805                       # Number of dispatched load instructions (Count)
system.cpu.iew.dispStoreInsts                 3454691                       # Number of dispatched store instructions (Count)
system.cpu.iew.dispNonSpecInsts                  6464                       # Number of dispatched non-speculative instructions (Count)
system.cpu.iew.iqFullEvents                         0                       # Number of times the IQ has become full, causing a stall (Count)
system.cpu.iew.lsqFullEvents                      551                       # Number of times the LSQ has become full, causing a stall (Count)
system.cpu.iew.memOrderViolationEvents            403                       # Number of memory order violations (Count)
system.cpu.iew.predictedTakenIncorrect         103837                       # Number of branches that were predicted taken incorrectly (Count)
system.cpu.iew.predictedNotTakenIncorrect        94368                       # Number of branches that were predicted not taken incorrectly (Count)
system.cpu.iew.branchMispredicts               198205                       # Number of branch mispredicts detected at execute (Count)
system.cpu.iew.instsToCommit                 42353121                       # Cumulative count of insts sent to commit (Count)
system.cpu.iew.writebackCount                42268563                       # Cumulative count of insts written-back (Count)
system.cpu.iew.producerInst                  29682611                       # Number of instructions producing a value (Count)
system.cpu.iew.consumerInst                  42201747                       # Number of instructions consuming a value (Count)
system.cpu.iew.wbRate                        1.002173                       # Insts written-back per cycle ((Count/Cycle))
system.cpu.iew.wbFanout                      0.703350                       # Average fanout of values written-back ((Count/Count))
system.cpu.interrupts.clk_domain.clock           8000                       # Clock period in ticks (Tick)
system.cpu.lsq0.forwLoads                     1326127                       # Number of loads that had data forwarded from stores (Count)
system.cpu.lsq0.squashedLoads                 1212652                       # Number of loads squashed (Count)
system.cpu.lsq0.ignoredResponses                10833                       # Number of memory responses ignored because the instruction is squashed (Count)
system.cpu.lsq0.memOrderViolation                 403                       # Number of memory ordering violations (Count)
system.cpu.lsq0.squashedStores                 248392                       # Number of stores squashed (Count)
system.cpu.lsq0.rescheduledLoads                  252                       # Number of loads that were rescheduled (Count)
system.cpu.lsq0.blockedByCache                    103                       # Number of times an access to memory failed due to the cache being blocked (Count)
system.cpu.lsq0.loadToUse::samples            6778153                       # Distribution of cycle latency between the first time a load is issued and its completion (Unspecified)
system.cpu.lsq0.loadToUse::mean              3.445593                       # Distribution of cycle latency between the first time a load is issued and its completion (Unspecified)
system.cpu.lsq0.loadToUse::stdev             5.531261                       # Distribution of cycle latency between the first time a load is issued and its completion (Unspecified)
system.cpu.lsq0.loadToUse::0-9                6687622     98.66%     98.66% # Distribution of cycle latency between the first time a load is issued and its completion (Unspecified)
[...]
system.mem_ctrls.dram.numReads::cpu.inst         1082                       # Number of read requests responded to by this memory (Count)
system.mem_ctrls.dram.numReads::cpu.data         5007                       # Number of read requests responded to by this memory (Count)
system.mem_ctrls.dram.numReads::total            6089                       # Number of read requests responded to by this memory (Count)
system.mem_ctrls.dram.numWrites::writebacks         3432                       # Number of write requests responded to by this memory (Count)
system.mem_ctrls.dram.numWrites::total           3432                       # Number of write requests responded to by this memory (Count)
system.mem_ctrls.dram.bwRead::cpu.inst        3283691                       # Total read bandwidth from this memory ((Byte/Second))
system.mem_ctrls.dram.bwRead::cpu.data       15195415                       # Total read bandwidth from this memory ((Byte/Second))
system.mem_ctrls.dram.bwRead::total          18479106                       # Total read bandwidth from this memory ((Byte/Second))
system.mem_ctrls.dram.bwInstRead::cpu.inst      3283691                       # Instruction read bandwidth from this memory ((Byte/Second))
system.mem_ctrls.dram.bwInstRead::total       3283691                       # Instruction read bandwidth from this memory ((Byte/Second))
system.mem_ctrls.dram.bwWrite::writebacks     10415551                       # Write bandwidth from this memory ((Byte/Second))
system.mem_ctrls.dram.bwWrite::total         10415551                       # Write bandwidth from this memory ((Byte/Second))
system.mem_ctrls.dram.bwTotal::writebacks     10415551                       # Total bandwidth to/from this memory ((Byte/Second))
system.mem_ctrls.dram.bwTotal::cpu.inst       3283691                       # Total bandwidth to/from this memory ((Byte/Second))
system.mem_ctrls.dram.bwTotal::cpu.data      15195415                       # Total bandwidth to/from this memory ((Byte/Second))
system.mem_ctrls.dram.bwTotal::total         28894657                       # Total bandwidth to/from this memory ((Byte/Second))
system.mem_ctrls.dram.readBursts                 5985                       # Number of DRAM read bursts (Count)
system.mem_ctrls.dram.writeBursts                3403                       # Number of DRAM write bursts (Count)
system.mem_ctrls.dram.perBankRdBursts::0          343                       # Per bank write bursts (Count)
system.mem_ctrls.dram.perBankRdBursts::1          340                       # Per bank write bursts (Count)
system.mem_ctrls.dram.perBankRdBursts::2          324                       # Per bank write bursts (Count)
system.mem_ctrls.dram.perBankRdBursts::3          211                       # Per bank write bursts (Count)
system.mem_ctrls.dram.perBankRdBursts::4          148                       # Per bank write bursts (Count)
system.mem_ctrls.dram.perBankRdBursts::5          159                       # Per bank write bursts (Count)
system.mem_ctrls.dram.perBankRdBursts::6          146                       # Per bank write bursts (Count)
system.mem_ctrls.dram.perBankRdBursts::7          126                       # Per bank write bursts (Count)
system.mem_ctrls.dram.perBankRdBursts::8          774                       # Per bank write bursts (Count)
system.mem_ctrls.dram.perBankRdBursts::9          750                       # Per bank write bursts (Count)
system.mem_ctrls.dram.perBankRdBursts::10          875                       # Per bank write bursts (Count)
system.mem_ctrls.dram.perBankRdBursts::11          721                       # Per bank write bursts (Count)
system.mem_ctrls.dram.perBankRdBursts::12          629                       # Per bank write bursts (Count)
system.mem_ctrls.dram.perBankRdBursts::13           99                       # Per bank write bursts (Count)
system.mem_ctrls.dram.perBankRdBursts::14          144                       # Per bank write bursts (Count)
system.mem_ctrls.dram.perBankRdBursts::15          196                       # Per bank write bursts (Count)
system.mem_ctrls.dram.perBankWrBursts::0           81                       # Per bank write bursts (Count)
system.mem_ctrls.dram.perBankWrBursts::1           69                       # Per bank write bursts (Count)
system.mem_ctrls.dram.perBankWrBursts::2          104                       # Per bank write bursts (Count)
system.mem_ctrls.dram.perBankWrBursts::3           88                       # Per bank write bursts (Count)
system.mem_ctrls.dram.perBankWrBursts::4            0                       # Per bank write bursts (Count)
system.mem_ctrls.dram.perBankWrBursts::5            0                       # Per bank write bursts (Count)
system.mem_ctrls.dram.perBankWrBursts::6            2                       # Per bank write bursts (Count)
system.mem_ctrls.dram.perBankWrBursts::7            0                       # Per bank write bursts (Count)
system.mem_ctrls.dram.perBankWrBursts::8          682                       # Per bank write bursts (Count)
system.mem_ctrls.dram.perBankWrBursts::9          676                       # Per bank write bursts (Count)
system.mem_ctrls.dram.perBankWrBursts::10          681                       # Per bank write bursts (Count)
system.mem_ctrls.dram.perBankWrBursts::11          477                       # Per bank write bursts (Count)
system.mem_ctrls.dram.perBankWrBursts::12          443                       # Per bank write bursts (Count)
system.mem_ctrls.dram.perBankWrBursts::13           43                       # Per bank write bursts (Count)
system.mem_ctrls.dram.perBankWrBursts::14            3                       # Per bank write bursts (Count)
system.mem_ctrls.dram.perBankWrBursts::15           54                       # Per bank write bursts (Count)
system.mem_ctrls.dram.totQLat                61245000                       # Total ticks spent queuing (Tick)
system.mem_ctrls.dram.totBusLat              29925000                       # Total ticks spent in databus transfers (Tick)
system.mem_ctrls.dram.totMemAccLat          173463750                       # Total ticks spent from burst creation until serviced by the DRAM (Tick)
system.mem_ctrls.dram.avgQLat                10233.08                       # Average queueing delay per DRAM burst ((Tick/Count))
system.mem_ctrls.dram.avgBusLat               5000.00                       # Average bus latency per DRAM burst ((Tick/Count))
system.mem_ctrls.dram.avgMemAccLat           28983.08                       # Average memory access latency per DRAM burst ((Tick/Count))
system.mem_ctrls.dram.readRowHits                5048                       # Number of row buffer hits during reads (Count)
system.mem_ctrls.dram.writeRowHits               3070                       # Number of row buffer hits during writes (Count)
system.mem_ctrls.dram.readRowHitRate            84.34                       # Row buffer hit rate for reads (Ratio)
system.mem_ctrls.dram.writeRowHitRate           90.21                       # Row buffer hit rate for writes (Ratio)
system.mem_ctrls.dram.bytesPerActivate::samples         1259                       # Bytes accessed per row activation (Byte)
system.mem_ctrls.dram.bytesPerActivate::mean   474.179508                       # Bytes accessed per row activation (Byte)
system.mem_ctrls.dram.bytesPerActivate::gmean   299.059542                       # Bytes accessed per row activation (Byte)
system.mem_ctrls.dram.bytesPerActivate::stdev   383.611194                       # Bytes accessed per row activation (Byte)
system.mem_ctrls.dram.bytesPerActivate::0-127          273     21.68%     21.68% # Bytes accessed per row activation (Byte)
system.mem_ctrls.dram.bytesPerActivate::128-255          218     17.32%     39.00% # Bytes accessed per row activation (Byte)
system.mem_ctrls.dram.bytesPerActivate::256-383          140     11.12%     50.12% # Bytes accessed per row activation (Byte)
system.mem_ctrls.dram.bytesPerActivate::384-511          124      9.85%     59.97% # Bytes accessed per row activation (Byte)
system.mem_ctrls.dram.bytesPerActivate::512-639           59      4.69%     64.65% # Bytes accessed per row activation (Byte)
system.mem_ctrls.dram.bytesPerActivate::640-767           52      4.13%     68.78% # Bytes accessed per row activation (Byte)
system.mem_ctrls.dram.bytesPerActivate::768-895           37      2.94%     71.72% # Bytes accessed per row activation (Byte)
system.mem_ctrls.dram.bytesPerActivate::896-1023           42      3.34%     75.06% # Bytes accessed per row activation (Byte)
system.mem_ctrls.dram.bytesPerActivate::1024-1151          314     24.94%    100.00% # Bytes accessed per row activation (Byte)
system.mem_ctrls.dram.bytesPerActivate::total         1259                       # Bytes accessed per row activation (Byte)
system.mem_ctrls.dram.bytesRead                383040                       # Total bytes read (Byte)
system.mem_ctrls.dram.bytesWritten             217792                       # Total bytes written (Byte)
system.mem_ctrls.dram.avgRdBW               18.163483                       # Average DRAM read bandwidth in MiBytes/s ((Byte/Second))
system.mem_ctrls.dram.avgWrBW               10.327541                       # Average DRAM write bandwidth in MiBytes/s ((Byte/Second))
system.mem_ctrls.dram.peakBW                 12800.00                       # Theoretical peak bandwidth in MiByte/s ((Byte/Second))
system.mem_ctrls.dram.busUtil                    0.22                       # Data bus utilization in percentage (Ratio)
system.mem_ctrls.dram.busUtilRead                0.14                       # Data bus utilization in percentage for reads (Ratio)
system.mem_ctrls.dram.busUtilWrite               0.08                       # Data bus utilization in percentage for writes (Ratio)
system.mem_ctrls.dram.pageHitRate               86.47                       # Row buffer hit rate, read and write combined (Ratio)
system.mem_ctrls.dram.power_state.pwrStateResidencyTicks::UNDEFINED  21088466000                       # Cumulative time (in ticks) in various power states (Tick)
system.mem_ctrls.dram.rank0.actEnergy         3084480                       # Energy for activate commands per rank (pJ) (Joule)
system.mem_ctrls.dram.rank0.preEnergy         1616670                       # Energy for precharge commands per rank (pJ) (Joule)
system.mem_ctrls.dram.rank0.readEnergy       12830580                       # Energy for read commands per rank (pJ) (Joule)
system.mem_ctrls.dram.rank0.writeEnergy       1795680                       # Energy for write commands per rank (pJ) (Joule)
system.mem_ctrls.dram.rank0.refreshEnergy 1664445120.000000                       # Energy for refresh commands per rank (pJ) (Joule)
system.mem_ctrls.dram.rank0.actBackEnergy    478339440                       # Energy for active background per rank (pJ) (Joule)
system.mem_ctrls.dram.rank0.preBackEnergy   7695158880                       # Energy for precharge background per rank (pJ) (Joule)
system.mem_ctrls.dram.rank0.actPowerDownEnergy            0                       # Energy for active power-down per rank (pJ) (Joule)
system.mem_ctrls.dram.rank0.prePowerDownEnergy            0                       # Energy for precharge power-down per rank (pJ) (Joule)
system.mem_ctrls.dram.rank0.selfRefreshEnergy            0                       # Energy for self refresh per rank (pJ) (Joule)
system.mem_ctrls.dram.rank0.totalEnergy    9857270850                       # Total energy per rank (pJ) (Joule)
system.mem_ctrls.dram.rank0.averagePower   467.424745                       # Core power per rank (mW) (Watt)
system.mem_ctrls.dram.rank0.totalIdleTime            0                       # Total Idle time Per DRAM Rank (Tick)
system.mem_ctrls.dram.rank0.pwrStateTime::IDLE  20001155500                       # Time in different power states (Tick)
system.mem_ctrls.dram.rank0.pwrStateTime::REF    704080000                       # Time in different power states (Tick)
system.mem_ctrls.dram.rank0.pwrStateTime::SREF            0                       # Time in different power states (Tick)
system.mem_ctrls.dram.rank0.pwrStateTime::PRE_PDN            0                       # Time in different power states (Tick)
system.mem_ctrls.dram.rank0.pwrStateTime::ACT    383230500                       # Time in different power states (Tick)
system.mem_ctrls.dram.rank0.pwrStateTime::ACT_PDN            0                       # Time in different power states (Tick)
system.mem_ctrls.dram.rank1.actEnergy         5983320                       # Energy for activate commands per rank (pJ) (Joule)
system.mem_ctrls.dram.rank1.preEnergy         3161235                       # Energy for precharge commands per rank (pJ) (Joule)
system.mem_ctrls.dram.rank1.readEnergy       29902320                       # Energy for read commands per rank (pJ) (Joule)
system.mem_ctrls.dram.rank1.writeEnergy      15967980                       # Energy for write commands per rank (pJ) (Joule)
system.mem_ctrls.dram.rank1.refreshEnergy 1664445120.000000                       # Energy for refresh commands per rank (pJ) (Joule)
system.mem_ctrls.dram.rank1.actBackEnergy    822975690                       # Energy for active background per rank (pJ) (Joule)
system.mem_ctrls.dram.rank1.preBackEnergy   7404938880                       # Energy for precharge background per rank (pJ) (Joule)
system.mem_ctrls.dram.rank1.actPowerDownEnergy            0                       # Energy for active power-down per rank (pJ) (Joule)
system.mem_ctrls.dram.rank1.prePowerDownEnergy            0                       # Energy for precharge power-down per rank (pJ) (Joule)
system.mem_ctrls.dram.rank1.selfRefreshEnergy            0                       # Energy for self refresh per rank (pJ) (Joule)
system.mem_ctrls.dram.rank1.totalEnergy    9947374545                       # Total energy per rank (pJ) (Joule)
system.mem_ctrls.dram.rank1.averagePower   471.697398                       # Core power per rank (mW) (Watt)
system.mem_ctrls.dram.rank1.totalIdleTime            0                       # Total Idle time Per DRAM Rank (Tick)
system.mem_ctrls.dram.rank1.pwrStateTime::IDLE  19243559500                       # Time in different power states (Tick)
system.mem_ctrls.dram.rank1.pwrStateTime::REF    704080000                       # Time in different power states (Tick)
system.mem_ctrls.dram.rank1.pwrStateTime::SREF            0                       # Time in different power states (Tick)
system.mem_ctrls.dram.rank1.pwrStateTime::PRE_PDN            0                       # Time in different power states (Tick)
system.mem_ctrls.dram.rank1.pwrStateTime::ACT   1140826500                       # Time in different power states (Tick)
system.mem_ctrls.dram.rank1.pwrStateTime::ACT_PDN            0                       # Time in different power states (Tick)
system.mem_ctrls.power_state.pwrStateResidencyTicks::UNDEFINED  21088466000                       # Cumulative time (in ticks) in various power states (Tick)
system.membus.transDist::ReadResp                4263                       # Transaction distribution (Count)
system.membus.transDist::WritebackDirty          3432                       # Transaction distribution (Count)
system.membus.transDist::CleanEvict              2139                       # Transaction distribution (Count)
system.membus.transDist::ReadExReq               1826                       # Transaction distribution (Count)
system.membus.transDist::ReadExResp              1826                       # Transaction distribution (Count)
system.membus.transDist::ReadSharedReq           4263                       # Transaction distribution (Count)
system.membus.pktCount_system.l2cache.mem_side_port::system.mem_ctrls.port        17749                       # Packet count per connected requestor and responder (Count)
system.membus.pktCount_system.l2cache.mem_side_port::total        17749                       # Packet count per connected requestor and responder (Count)
system.membus.pktCount::total                   17749                       # Packet count per connected requestor and responder (Count)
system.membus.pktSize_system.l2cache.mem_side_port::system.mem_ctrls.port       609344                       # Cumulative packet size per connected requestor and responder (Byte)
system.membus.pktSize_system.l2cache.mem_side_port::total       609344                       # Cumulative packet size per connected requestor and responder (Byte)
system.membus.pktSize::total                   609344                       # Cumulative packet size per connected requestor and responder (Byte)
system.membus.snoops                                0                       # Total snoops (Count)
system.membus.snoopTraffic                          0                       # Total snoop traffic (Byte)
system.membus.snoopFanout::samples               6089                       # Request fanout histogram (Count)
system.membus.snoopFanout::mean                     0                       # Request fanout histogram (Count)
system.membus.snoopFanout::stdev                    0                       # Request fanout histogram (Count)
system.membus.snoopFanout::underflows               0      0.00%      0.00% # Request fanout histogram (Count)
system.membus.snoopFanout::0                     6089    100.00%    100.00% # Request fanout histogram (Count)
system.membus.snoopFanout::1                        0      0.00%    100.00% # Request fanout histogram (Count)
system.membus.snoopFanout::overflows                0      0.00%    100.00% # Request fanout histogram (Count)
system.membus.snoopFanout::min_value                0                       # Request fanout histogram (Count)
system.membus.snoopFanout::max_value                0                       # Request fanout histogram (Count)
system.membus.snoopFanout::total                 6089                       # Request fanout histogram (Count)
system.membus.power_state.pwrStateResidencyTicks::UNDEFINED  21088466000                       # Cumulative time (in ticks) in various power states (Tick)
system.membus.reqLayer2.occupancy            12694000                       # Layer occupancy (ticks) (Tick)
system.membus.reqLayer2.utilization               0.0                       # Layer utilization (Ratio)
system.membus.respLayer1.occupancy           16532250                       # Layer occupancy (ticks) (Tick)
system.membus.respLayer1.utilization              0.0                       # Layer utilization (Ratio)
system.membus.snoop_filter.totRequests          11660                       # Total number of requests made to the snoop filter. (Count)
system.membus.snoop_filter.hitSingleRequests         5571                       # Number of requests hitting in the snoop filter with a single holder of the requested data. (Count)
system.membus.snoop_filter.hitMultiRequests            0                       # Number of requests hitting in the snoop filter with multiple (>1) holders of the requested data. (Count)
system.membus.snoop_filter.totSnoops                0                       # Total number of snoops made to the snoop filter. (Count)
system.membus.snoop_filter.hitSingleSnoops            0                       # Number of snoops hitting in the snoop filter with a single holder of the requested data. (Count)
system.membus.snoop_filter.hitMultiSnoops            0                       # Number of snoops hitting in the snoop filter with multiple (>1) holders of the requested data. (Count)
system.workload.inst.arm                            0                       # number of arm instructions executed (Count)
system.workload.inst.quiesce                        0                       # number of quiesce instructions executed (Count)

---------- End Simulation Statistics   ----------
