
---------- Begin Simulation Statistics ----------
simSeconds                                   0.022738                       # Number of seconds simulated (Second)
simTicks                                  22738367000                       # Number of ticks simulated (Tick)
finalTick                                 22738367000                       # Number of ticks from beginning of simulation (restored from checkpoints and never reset) (Tick)
simFreq                                  1000000000000                       # The number of ticks per simulated second ((Tick/Second))
hostSeconds                                    293.90                       # Real time elapsed on the host (Second)
hostTickRate                                 77367143                       # The number of ticks simulated per host second (ticks/s) ((Tick/Second))
hostMemory                                     803260                       # Number of bytes of host memory used (Byte)
simInsts                                     21343836                       # Number of instructions simulated (Count)
simOps                                       39396425                       # Number of ops (including micro ops) simulated (Count)
hostInstRate                                    72622                       # Simulator instruction rate (inst/s) ((Count/Second))
hostOpRate                                     134046                       # Simulator op (including micro ops) rate (op/s) ((Count/Second))
system.clk_domain.clock                           500                       # Clock period in ticks (Tick)
system.clk_domain.voltage_domain.voltage            1                       # Voltage in Volts (Volt)
system.cpu.numCycles                         45476735                       # Number of cpu cycles simulated (Cycle)
system.cpu.numWorkItemsStarted                      0                       # Number of work items this cpu started (Count)
system.cpu.numWorkItemsCompleted                    0                       # Number of work items this cpu completed (Count)
system.cpu.instsAdded                        41271174                       # Number of instructions added to the IQ (excludes non-spec) (Count)
system.cpu.nonSpecInstsAdded                    17690                       # Number of non-speculative instructions added to the IQ (Count)
system.cpu.instsIssued                       40870014                       # Number of instructions issued (Count)
system.cpu.squashedInstsIssued                      8                       # Number of squashed instructions issued (Count)
system.cpu.squashedInstsExamined              1892433                       # Number of squashed instructions iterated over during squash; mainly for profiling (Count)
system.cpu.squashedOperandsExamined           2403644                       # Number of squashed operands that are examined and possibly removed from graph (Count)
system.cpu.squashedNonSpecRemoved               17672                       # Number of squashed non-spec instructions that were removed (Count)
system.cpu.numIssuedDist::samples            43690808                       # Number of insts issued each cycle (Count)
system.cpu.numIssuedDist::mean               0.935437                       # Number of insts issued each cycle (Count)
system.cpu.numIssuedDist::stdev              1.324749                       # Number of insts issued each cycle (Count)
system.cpu.numIssuedDist::underflows                0      0.00%      0.00% # Number of insts issued each cycle (Count)
system.cpu.numIssuedDist::0                  24103643     55.17%     55.17% # Number of insts issued each cycle (Count)
system.cpu.numIssuedDist::1                   7888230     18.05%     73.22% # Number of insts issued each cycle (Count)
system.cpu.numIssuedDist::2                   6115537     14.00%     87.22% # Number of insts issued each cycle (Count)
system.cpu.numIssuedDist::3                   3172292      7.26%     94.48% # Number of insts issued each cycle (Count)
system.cpu.numIssuedDist::4                   1276045      2.92%     97.40% # Number of insts issued each cycle (Count)
system.cpu.numIssuedDist::5                    788101      1.80%     99.21% # Number of insts issued each cycle (Count)
system.cpu.numIssuedDist::6                    239587      0.55%     99.75% # Number of insts issued each cycle (Count)
system.cpu.numIssuedDist::7                    107357      0.25%    100.00% # Number of insts issued each cycle (Count)
system.cpu.numIssuedDist::8                        16      0.00%    100.00% # Number of insts issued each cycle (Count)
system.cpu.numIssuedDist::overflows                 0      0.00%    100.00% # Number of insts issued each cycle (Count)
system.cpu.numIssuedDist::min_value                 0                       # Number of insts issued each cycle (Count)
system.cpu.numIssuedDist::max_value                 8                       # Number of insts issued each cycle (Count)
system.cpu.numIssuedDist::total              43690808                       # Number of insts issued each cycle (Count)
system.cpu.statFuBusy::No_OpClass                   0      0.00%      0.00% # attempts to use FU when none available (Count)
system.cpu.statFuBusy::IntAlu                       0      0.00%      0.00% # attempts to use FU when none available (Count)
system.cpu.statFuBusy::IntMult                      0      0.00%      0.00% # attempts to use FU when none available (Count)
system.cpu.statFuBusy::IntDiv                       0      0.00%      0.00% # attempts to use FU when none available (Count)
system.cpu.statFuBusy::FloatAdd                     0      0.00%      0.00% # attempts to use FU when none available (Count)
system.cpu.statFuBusy::FloatCmp                     0      0.00%      0.00% # attempts to use FU when none available (Count)
system.cpu.statFuBusy::FloatCvt                     0      0.00%      0.00% # attempts to use FU when none available (Count)
system.cpu.statFuBusy::FloatMult                    0      0.00%      0.00% # attempts to use FU when none available (Count)
system.cpu.statFuBusy::FloatMultAcc                 0      0.00%      0.00% # attempts to use FU when none available (Count)
system.cpu.statFuBusy::FloatDiv                     0      0.00%      0.00% # attempts to use FU when none available (Count)
system.cpu.statFuBusy::FloatMisc                    0      0.00%      0.00% # attempts to use FU when none available (Count)
system.cpu.statFuBusy::FloatSqrt                    0      0.00%      0.00% # attempts to use FU when none available (Count)
system.cpu.statFuBusy::SimdAdd                      0      0.00%      0.00% # attempts to use FU when none available (Count)
system.cpu.statFuBusy::SimdAddAcc                   0      0.00%      0.00% # attempts to use FU when none available (Count)
system.cpu.statFuBusy::SimdAlu                      0      0.00%      0.00% # attempts to use FU when none available (Count)
system.cpu.statFuBusy::SimdCmp                      0      0.00%      0.00% # attempts to use FU when none available (Count)
system.cpu.statFuBusy::SimdCvt                      0      0.00%      0.00% # attempts to use FU when none available (Count)
system.cpu.statFuBusy::SimdMisc                     0      0.00%      0.00% # attempts to use FU when none available (Count)
system.cpu.statFuBusy::SimdMult                     0      0.00%      0.00% # attempts to use FU when none available (Count)
system.cpu.statFuBusy::SimdMultAcc                  0      0.00%      0.00% # attempts to use FU when none available (Count)
system.cpu.statFuBusy::SimdShift                    0      0.00%      0.00% # attempts to use FU when none available (Count)
system.cpu.statFuBusy::SimdShiftAcc                 0      0.00%      0.00% # attempts to use FU when none available (Count)
system.cpu.statFuBusy::SimdDiv                      0      0.00%      0.00% # attempts to use FU when none available (Count)
system.cpu.statFuBusy::SimdSqrt                     0      0.00%      0.00% # attempts to use FU when none available (Count)
system.cpu.statFuBusy::SimdFloatAdd                 0      0.00%      0.00% # attempts to use FU when none available (Count)
system.cpu.statFuBusy::SimdFloatAlu                 0      0.00%      0.00% # attempts to use FU when none available (Count)
system.cpu.statFuBusy::SimdFloatCmp                 0      0.00%      0.00% # attempts to use FU when none available (Count)
system.cpu.statFuBusy::SimdFloatCvt                 0      0.00%      0.00% # attempts to use FU when none available (Count)
system.cpu.statFuBusy::SimdFloatDiv                 0      0.00%      0.00% # attempts to use FU when none available (Count)
system.cpu.statFuBusy::SimdFloatMisc                0      0.00%      0.00% # attempts to use FU when none available (Count)
system.cpu.statFuBusy::SimdFloatMult                0      0.00%      0.00% # attempts to use FU when none available (Count)
system.cpu.statFuBusy::SimdFloatMultAcc             0      0.00%      0.00% # attempts to use FU when none available (Count)
system.cpu.statFuBusy::SimdFloatSqrt                0      0.00%      0.00% # attempts to use FU when none available (Count)
system.cpu.statFuBusy::SimdReduceAdd                0      0.00%      0.00% # attempts to use FU when none available (Count)
system.cpu.statFuBusy::SimdReduceAlu                0      0.00%      0.00% # attempts to use FU when none available (Count)
system.cpu.statFuBusy::SimdReduceCmp                0      0.00%      0.00% # attempts to use FU when none available (Count)
system.cpu.statFuBusy::SimdFloatReduceAdd            0      0.00%      0.00% # attempts to use FU when none available (Count)
system.cpu.statFuBusy::SimdFloatReduceCmp            0      0.00%      0.00% # attempts to use FU when none available (Count)
system.cpu.statFuBusy::SimdAes                      0      0.00%      0.00% # attempts to use FU when none available (Count)
system.cpu.statFuBusy::SimdAesMix                   0      0.00%      0.00% # attempts to use FU when none available (Count)
system.cpu.statFuBusy::SimdSha1Hash                 0      0.00%      0.00% # attempts to use FU when none available (Count)
system.cpu.statFuBusy::SimdSha1Hash2                0      0.00%      0.00% # attempts to use FU when none available (Count)
system.cpu.statFuBusy::SimdSha256Hash               0      0.00%      0.00% # attempts to use FU when none available (Count)
system.cpu.statFuBusy::SimdSha256Hash2              0      0.00%      0.00% # attempts to use FU when none available (Count)
system.cpu.statFuBusy::SimdShaSigma2                0      0.00%      0.00% # attempts to use FU when none available (Count)
system.cpu.statFuBusy::SimdShaSigma3                0      0.00%      0.00% # attempts to use FU when none available (Count)
system.cpu.statFuBusy::SimdPredAlu                  0      0.00%      0.00% # attempts to use FU when none available (Count)
system.cpu.statFuBusy::MemRead                  10209     36.58%     36.58% # attempts to use FU when none available (Count)
system.cpu.statFuBusy::MemWrite                 17686     63.37%     99.95% # attempts to use FU when none available (Count)
system.cpu.statFuBusy::FloatMemRead                 5      0.02%     99.97% # attempts to use FU when none available (Count)
system.cpu.statFuBusy::FloatMemWrite                9      0.03%    100.00% # attempts to use FU when none available (Count)
system.cpu.statFuBusy::IprAccess                    0      0.00%    100.00% # attempts to use FU when none available (Count)
system.cpu.statFuBusy::InstPrefetch                 0      0.00%    100.00% # attempts to use FU when none available (Count)
system.cpu.statIssuedInstType_0::No_OpClass        53995      0.13%      0.13% # Number of instructions issued per FU type, per thread (Count)
system.cpu.statIssuedInstType_0::IntAlu      29434025     72.02%     72.15% # Number of instructions issued per FU type, per thread (Count)
system.cpu.statIssuedInstType_0::IntMult       128912      0.32%     72.47% # Number of instructions issued per FU type, per thread (Count)
system.cpu.statIssuedInstType_0::IntDiv        126925      0.31%     72.78% # Number of instructions issued per FU type, per thread (Count)
system.cpu.statIssuedInstType_0::FloatAdd        35441      0.09%     72.86% # Number of instructions issued per FU type, per thread (Count)
system.cpu.statIssuedInstType_0::FloatCmp            0      0.00%     72.86% # Number of instructions issued per FU type, per thread (Count)
system.cpu.statIssuedInstType_0::FloatCvt           32      0.00%     72.86% # Number of instructions issued per FU type, per thread (Count)
system.cpu.statIssuedInstType_0::FloatMult            0      0.00%     72.86% # Number of instructions issued per FU type, per thread (Count)
system.cpu.statIssuedInstType_0::FloatMultAcc            0      0.00%     72.86% # Number of instructions issued per FU type, per thread (Count)
system.cpu.statIssuedInstType_0::FloatDiv            0      0.00%     72.86% # Number of instructions issued per FU type, per thread (Count)
system.cpu.statIssuedInstType_0::FloatMisc            0      0.00%     72.86% # Number of instructions issued per FU type, per thread (Count)
system.cpu.statIssuedInstType_0::FloatSqrt            0      0.00%     72.86% # Number of instructions issued per FU type, per thread (Count)
system.cpu.statIssuedInstType_0::SimdAdd            0      0.00%     72.86% # Number of instructions issued per FU type, per thread (Count)
system.cpu.statIssuedInstType_0::SimdAddAcc            0      0.00%     72.86% # Number of instructions issued per FU type, per thread (Count)
system.cpu.statIssuedInstType_0::SimdAlu        70850      0.17%     73.04% # Number of instructions issued per FU type, per thread (Count)
system.cpu.statIssuedInstType_0::SimdCmp            0      0.00%     73.04% # Number of instructions issued per FU type, per thread (Count)
system.cpu.statIssuedInstType_0::SimdCvt       141712      0.35%     73.38% # Number of instructions issued per FU type, per thread (Count)
system.cpu.statIssuedInstType_0::SimdMisc       389683      0.95%     74.34% # Number of instructions issued per FU type, per thread (Count)
system.cpu.statIssuedInstType_0::SimdMult            0      0.00%     74.34% # Number of instructions issued per FU type, per thread (Count)
system.cpu.statIssuedInstType_0::SimdMultAcc            0      0.00%     74.34% # Number of instructions issued per FU type, per thread (Count)
system.cpu.statIssuedInstType_0::SimdShift            0      0.00%     74.34% # Number of instructions issued per FU type, per thread (Count)
system.cpu.statIssuedInstType_0::SimdShiftAcc            0      0.00%     74.34% # Number of instructions issued per FU type, per thread (Count)
system.cpu.statIssuedInstType_0::SimdDiv            0      0.00%     74.34% # Number of instructions issued per FU type, per thread (Count)
system.cpu.statIssuedInstType_0::SimdSqrt            0      0.00%     74.34% # Number of instructions issued per FU type, per thread (Count)
system.cpu.statIssuedInstType_0::SimdFloatAdd            0      0.00%     74.34% # Number of instructions issued per FU type, per thread (Count)
system.cpu.statIssuedInstType_0::SimdFloatAlu            0      0.00%     74.34% # Number of instructions issued per FU type, per thread (Count)
system.cpu.statIssuedInstType_0::SimdFloatCmp            0      0.00%     74.34% # Number of instructions issued per FU type, per thread (Count)
system.cpu.statIssuedInstType_0::SimdFloatCvt            0      0.00%     74.34% # Number of instructions issued per FU type, per thread (Count)
system.cpu.statIssuedInstType_0::SimdFloatDiv            0      0.00%     74.34% # Number of instructions issued per FU type, per thread (Count)
system.cpu.statIssuedInstType_0::SimdFloatMisc            0      0.00%     74.34% # Number of instructions issued per FU type, per thread (Count)
system.cpu.statIssuedInstType_0::SimdFloatMult            0      0.00%     74.34% # Number of instructions issued per FU type, per thread (Count)
system.cpu.statIssuedInstType_0::SimdFloatMultAcc            0      0.00%     74.34% # Number of instructions issued per FU type, per thread (Count)
system.cpu.statIssuedInstType_0::SimdFloatSqrt            0      0.00%     74.34% # Number of instructions issued per FU type, per thread (Count)
system.cpu.statIssuedInstType_0::SimdReduceAdd            0      0.00%     74.34% # Number of instructions issued per FU type, per thread (Count)
system.cpu.statIssuedInstType_0::SimdReduceAlu            0      0.00%     74.34% # Number of instructions issued per FU type, per thread (Count)
system.cpu.statIssuedInstType_0::SimdReduceCmp            0      0.00%     74.34% # Number of instructions issued per FU type, per thread (Count)
system.cpu.statIssuedInstType_0::SimdFloatReduceAdd            0      0.00%     74.34% # Number of instructions issued per FU type, per thread (Count)
system.cpu.statIssuedInstType_0::SimdFloatReduceCmp            0      0.00%     74.34% # Number of instructions issued per FU type, per thread (Count)
system.cpu.statIssuedInstType_0::SimdAes            0      0.00%     74.34% # Number of instructions issued per FU type, per thread (Count)
system.cpu.statIssuedInstType_0::SimdAesMix            0      0.00%     74.34% # Number of instructions issued per FU type, per thread (Count)
system.cpu.statIssuedInstType_0::SimdSha1Hash            0      0.00%     74.34% # Number of instructions issued per FU type, per thread (Count)
system.cpu.statIssuedInstType_0::SimdSha1Hash2            0      0.00%     74.34% # Number of instructions issued per FU type, per thread (Count)
system.cpu.statIssuedInstType_0::SimdSha256Hash            0      0.00%     74.34% # Number of instructions issued per FU type, per thread (Count)
system.cpu.statIssuedInstType_0::SimdSha256Hash2            0      0.00%     74.34% # Number of instructions issued per FU type, per thread (Count)
system.cpu.statIssuedInstType_0::SimdShaSigma2            0      0.00%     74.34% # Number of instructions issued per FU type, per thread (Count)
system.cpu.statIssuedInstType_0::SimdShaSigma3            0      0.00%     74.34% # Number of instructions issued per FU type, per thread (Count)
system.cpu.statIssuedInstType_0::SimdPredAlu            0      0.00%     74.34% # Number of instructions issued per FU type, per thread (Count)
system.cpu.statIssuedInstType_0::MemRead      7136673     17.46%     91.80% # Number of instructions issued per FU type, per thread (Count)
system.cpu.statIssuedInstType_0::MemWrite      3280772      8.03%     99.83% # Number of instructions issued per FU type, per thread (Count)
system.cpu.statIssuedInstType_0::FloatMemRead        70922      0.17%    100.00% # Number of instructions issued per FU type, per thread (Count)
system.cpu.statIssuedInstType_0::FloatMemWrite           72      0.00%    100.00% # Number of instructions issued per FU type, per thread (Count)
system.cpu.statIssuedInstType_0::IprAccess            0      0.00%    100.00% # Number of instructions issued per FU type, per thread (Count)
system.cpu.statIssuedInstType_0::InstPrefetch            0      0.00%    100.00% # Number of instructions issued per FU type, per thread (Count)
system.cpu.statIssuedInstType_0::total       40870014                       # Number of instructions issued per FU type, per thread (Count)
system.cpu.issueRate                         0.898702                       # Inst issue rate ((Count/Cycle))
system.cpu.fuBusy                               27909                       # FU busy when requested (Count)
system.cpu.fuBusyRate                        0.000683                       # FU busy rate (busy events/executed inst) ((Count/Count))
system.cpu.intInstQueueReads                123828753                       # Number of integer instruction queue reads (Count)
system.cpu.intInstQueueWrites                42366424                       # Number of integer instruction queue writes (Count)
system.cpu.intInstQueueWakeupAccesses        39747264                       # Number of integer instruction queue wakeup accesses (Count)
system.cpu.fpInstQueueReads                   1630000                       # Number of floating instruction queue reads (Count)
system.cpu.fpInstQueueWrites                   815019                       # Number of floating instruction queue writes (Count)
system.cpu.fpInstQueueWakeupAccesses           814988                       # Number of floating instruction queue wakeup accesses (Count)
system.cpu.vecInstQueueReads                        0                       # Number of vector instruction queue reads (Count)
system.cpu.vecInstQueueWrites                       0                       # Number of vector instruction queue writes (Count)
system.cpu.vecInstQueueWakeupAccesses               0                       # Number of vector instruction queue wakeup accesses (Count)
system.cpu.intAluAccesses                    40028921                       # Number of integer alu accesses (Count)
system.cpu.fpAluAccesses                       815007                       # Number of floating point alu accesses (Count)
system.cpu.vecAluAccesses                           0                       # Number of vector alu accesses (Count)
system.cpu.numInsts                          40720965                       # Number of executed instructions (Count)
system.cpu.numLoadInsts                       7154450                       # Number of load instructions executed (Count)
system.cpu.numSquashedInsts                    149049                       # Number of squashed instructions skipped in execute (Count)
system.cpu.numSwp                                   0                       # Number of swp insts executed (Count)
system.cpu.numNop                                   0                       # Number of nop insts executed (Count)
system.cpu.numRefs                           10412968                       # Number of memory reference insts executed (Count)
system.cpu.numBranches                        3986760                       # Number of branches executed (Count)
system.cpu.numStoreInsts                      3258518                       # Number of stores executed (Count)
system.cpu.numRate                           0.895424                       # Inst execution rate ((Count/Cycle))
system.cpu.timesIdled                          539081                       # Number of times that the entire CPU went into an idle state and unscheduled itself (Count)
system.cpu.idleCycles                         1785927                       # Total number of cycles that the CPU has spent unscheduled due to idling (Cycle)
system.cpu.committedInsts                    21343836                       # Number of Instructions Simulated (Count)
system.cpu.committedOps                      39396425                       # Number of Ops (including micro ops) Simulated (Count)
system.cpu.cpi                               2.130673                       # CPI: Cycles Per Instruction ((Cycle/Count))
system.cpu.totalCpi                          2.130673                       # CPI: Total CPI of All Threads ((Cycle/Count))
system.cpu.ipc                               0.469335                       # IPC: Instructions Per Cycle ((Count/Cycle))
system.cpu.totalIpc                          0.469335                       # IPC: Total IPC of All Threads ((Count/Cycle))
system.cpu.intRegfileReads                   51968769                       # Number of integer regfile reads (Count)
system.cpu.intRegfileWrites                  30056468                       # Number of integer regfile writes (Count)
system.cpu.fpRegfileReads                     1452580                       # Number of floating regfile reads (Count)
system.cpu.fpRegfileWrites                     673178                       # Number of floating regfile writes (Count)
system.cpu.ccRegfileReads                    19665079                       # number of cc regfile reads (Count)
system.cpu.ccRegfileWrites                   12802532                       # number of cc regfile writes (Count)
system.cpu.miscRegfileReads                  18517714                       # number of misc regfile reads (Count)
system.cpu.miscRegfileWrites                       18                       # number of misc regfile writes (Count)
system.cpu.MemDepUnit__0.insertedLoads        7288061                       # Number of loads inserted to the mem dependence unit. (Count)
system.cpu.MemDepUnit__0.insertedStores       3304496                       # Number of stores inserted to the mem dependence unit. (Count)
system.cpu.MemDepUnit__0.conflictingLoads       497661                       # Number of conflicting loads. (Count)
system.cpu.MemDepUnit__0.conflictingStores        19466                       # Number of conflicting stores. (Count)
system.cpu.MemDepUnit__1.insertedLoads              0                       # Number of loads inserted to the mem dependence unit. (Count)
system.cpu.MemDepUnit__1.insertedStores             0                       # Number of stores inserted to the mem dependence unit. (Count)
system.cpu.MemDepUnit__1.conflictingLoads            0                       # Number of conflicting loads. (Count)
system.cpu.MemDepUnit__1.conflictingStores            0                       # Number of conflicting stores. (Count)
system.cpu.MemDepUnit__2.insertedLoads              0                       # Number of loads inserted to the mem dependence unit. (Count)
system.cpu.MemDepUnit__2.insertedStores             0                       # Number of stores inserted to the mem dependence unit. (Count)
system.cpu.MemDepUnit__2.conflictingLoads            0                       # Number of conflicting loads. (Count)
system.cpu.MemDepUnit__2.conflictingStores            0                       # Number of conflicting stores. (Count)
system.cpu.MemDepUnit__3.insertedLoads              0                       # Number of loads inserted to the mem dependence unit. (Count)
system.cpu.MemDepUnit__3.insertedStores             0                       # Number of stores inserted to the mem dependence unit. (Count)
system.cpu.MemDepUnit__3.conflictingLoads            0                       # Number of conflicting loads. (Count)
system.cpu.MemDepUnit__3.conflictingStores            0                       # Number of conflicting stores. (Count)
system.cpu.branchPred.lookups                 4615115                       # Number of BP lookups (Count)
system.cpu.branchPred.condPredicted           3450733                       # Number of conditional branches predicted (Count)
system.cpu.branchPred.condIncorrect            227626                       # Number of conditional branches incorrect (Count)
system.cpu.branchPred.BTBLookups              2494231                       # Number of BTB lookups (Count)
system.cpu.branchPred.BTBHits                 2423016                       # Number of BTB hits (Count)
system.cpu.branchPred.BTBHitRatio            0.971448                       # BTB Hit Ratio (Ratio)
system.cpu.branchPred.RASUsed                  323275                       # Number of times the RAS was used to get a target. (Count)
system.cpu.branchPred.RASIncorrect                683                       # Number of incorrect RAS predictions. (Count)
system.cpu.branchPred.indirectLookups          160312                       # Number of indirect predictor lookups. (Count)
system.cpu.branchPred.indirectHits             159636                       # Number of indirect target hits. (Count)
system.cpu.branchPred.indirectMisses              676                       # Number of indirect misses. (Count)
system.cpu.branchPred.indirectMispredicted          145                       # Number of mispredicted indirect branches. (Count)
system.cpu.branchPred.loop_predictor.correct      2524303                       # Number of times the loop predictor is the provider and the prediction is correct (Count)
system.cpu.branchPred.loop_predictor.wrong       328131                       # Number of times the loop predictor is the provider and the prediction is wrong (Count)
system.cpu.branchPred.tage.longestMatchProviderCorrect      1317024                       # Number of times TAGE Longest Match is the provider and the prediction is correct (Count)
system.cpu.branchPred.tage.altMatchProviderCorrect        41407                       # Number of times TAGE Alt Match is the provider and the prediction is correct (Count)
system.cpu.branchPred.tage.bimodalAltMatchProviderCorrect          736                       # Number of times TAGE Alt Match is the bimodal and it is the provider and the prediction is correct (Count)
system.cpu.branchPred.tage.bimodalProviderCorrect      1329802                       # Number of times there are no hits on the TAGE tables and the bimodal prediction is correct (Count)
system.cpu.branchPred.tage.longestMatchProviderWrong       106998                       # Number of times TAGE Longest Match is the provider and the prediction is wrong (Count)
system.cpu.branchPred.tage.altMatchProviderWrong        27881                       # Number of times TAGE Alt Match is the provider and the prediction is wrong (Count)
system.cpu.branchPred.tage.bimodalAltMatchProviderWrong          282                       # Number of times TAGE Alt Match is the bimodal and it is the provider and the prediction is wrong (Count)
system.cpu.branchPred.tage.bimodalProviderWrong          817                       # Number of times there are no hits on the TAGE tables and the bimodal prediction is wrong (Count)
system.cpu.branchPred.tage.altMatchProviderWouldHaveHit        33589                       # Number of times TAGE Longest Match is the provider, the prediction is wrong and Alt Match prediction was correct (Count)
system.cpu.branchPred.tage.longestMatchProviderWouldHaveHit        15124                       # Number of times TAGE Alt Match is the provider, the prediction is wrong and Longest Match prediction was correct (Count)
system.cpu.branchPred.tage.longestMatchProvider::0            0                       # TAGE provider for longest match (Count)
system.cpu.branchPred.tage.longestMatchProvider::1       433345                       # TAGE provider for longest match (Count)
system.cpu.branchPred.tage.longestMatchProvider::2       306687                       # TAGE provider for longest match (Count)
system.cpu.branchPred.tage.longestMatchProvider::3       329511                       # TAGE provider for longest match (Count)
system.cpu.branchPred.tage.longestMatchProvider::4       208009                       # TAGE provider for longest match (Count)
system.cpu.branchPred.tage.longestMatchProvider::5        79430                       # TAGE provider for longest match (Count)
system.cpu.branchPred.tage.longestMatchProvider::6        24149                       # TAGE provider for longest match (Count)
system.cpu.branchPred.tage.longestMatchProvider::7        19965                       # TAGE provider for longest match (Count)
system.cpu.branchPred.tage.longestMatchProvider::8         8539                       # TAGE provider for longest match (Count)
system.cpu.branchPred.tage.longestMatchProvider::9        40075                       # TAGE provider for longest match (Count)
system.cpu.branchPred.tage.longestMatchProvider::10        15844                       # TAGE provider for longest match (Count)
system.cpu.branchPred.tage.longestMatchProvider::11        10510                       # TAGE provider for longest match (Count)
system.cpu.branchPred.tage.longestMatchProvider::12        17246                       # TAGE provider for longest match (Count)
system.cpu.branchPred.tage.altMatchProvider::0       766332                       # TAGE provider for alt match (Count)
system.cpu.branchPred.tage.altMatchProvider::1       115996                       # TAGE provider for alt match (Count)
system.cpu.branchPred.tage.altMatchProvider::2       236970                       # TAGE provider for alt match (Count)
system.cpu.branchPred.tage.altMatchProvider::3       213535                       # TAGE provider for alt match (Count)
system.cpu.branchPred.tage.altMatchProvider::4        66272                       # TAGE provider for alt match (Count)
system.cpu.branchPred.tage.altMatchProvider::5        17957                       # TAGE provider for alt match (Count)
system.cpu.branchPred.tage.altMatchProvider::6         6726                       # TAGE provider for alt match (Count)
system.cpu.branchPred.tage.altMatchProvider::7        17233                       # TAGE provider for alt match (Count)
system.cpu.branchPred.tage.altMatchProvider::8        10488                       # TAGE provider for alt match (Count)
system.cpu.branchPred.tage.altMatchProvider::9        15999                       # TAGE provider for alt match (Count)
system.cpu.branchPred.tage.altMatchProvider::10        11422                       # TAGE provider for alt match (Count)
system.cpu.branchPred.tage.altMatchProvider::11        14380                       # TAGE provider for alt match (Count)
system.cpu.branchPred.tage.altMatchProvider::12            0                       # TAGE provider for alt match (Count)
system.cpu.commit.commitSquashedInsts         1803272                       # The number of squashed insts skipped by commit (Count)
system.cpu.commit.commitNonSpecStalls              18                       # The number of times commit has been forced to stall to communicate backwards (Count)
system.cpu.commit.branchMispredicts            174153                       # The number of times a branch was mispredicted (Count)
system.cpu.commit.numCommittedDist::samples     43352845                       # Number of insts commited each cycle (Count)
system.cpu.commit.numCommittedDist::mean     0.908739                       # Number of insts commited each cycle (Count)
system.cpu.commit.numCommittedDist::stdev     1.442102                       # Number of insts commited each cycle (Count)
system.cpu.commit.numCommittedDist::underflows            0      0.00%      0.00% # Number of insts commited each cycle (Count)
system.cpu.commit.numCommittedDist::0        25108456     57.92%     57.92% # Number of insts commited each cycle (Count)
system.cpu.commit.numCommittedDist::1         8305445     19.16%     77.07% # Number of insts commited each cycle (Count)
system.cpu.commit.numCommittedDist::2         4073168      9.40%     86.47% # Number of insts commited each cycle (Count)
system.cpu.commit.numCommittedDist::3         3495141      8.06%     94.53% # Number of insts commited each cycle (Count)
system.cpu.commit.numCommittedDist::4          963636      2.22%     96.75% # Number of insts commited each cycle (Count)
system.cpu.commit.numCommittedDist::5          610032      1.41%     98.16% # Number of insts commited each cycle (Count)
system.cpu.commit.numCommittedDist::6          274594      0.63%     98.80% # Number of insts commited each cycle (Count)
system.cpu.commit.numCommittedDist::7          272031      0.63%     99.42% # Number of insts commited each cycle (Count)
system.cpu.commit.numCommittedDist::8          250342      0.58%    100.00% # Number of insts commited each cycle (Count)
system.cpu.commit.numCommittedDist::overflows            0      0.00%    100.00% # Number of insts commited each cycle (Count)
system.cpu.commit.numCommittedDist::min_value            0                       # Number of insts commited each cycle (Count)
system.cpu.commit.numCommittedDist::max_value            8                       # Number of insts commited each cycle (Count)
system.cpu.commit.numCommittedDist::total     43352845                       # Number of insts commited each cycle (Count)
system.cpu.commit.instsCommitted             21343836                       # Number of instructions committed (Count)
system.cpu.commit.opsCommitted               39396425                       # Number of ops (including micro ops) committed (Count)
system.cpu.commit.memRefs                     9984452                       # Number of memory references committed (Count)
system.cpu.commit.loads                       6778153                       # Number of loads committed (Count)
system.cpu.commit.amos                              0                       # Number of atomic instructions committed (Count)
system.cpu.commit.membars                           0                       # Number of memory barriers committed (Count)
system.cpu.commit.branches                    3853625                       # Number of branches committed (Count)
system.cpu.commit.vectorInstructions                0                       # Number of committed Vector instructions. (Count)
system.cpu.commit.floating                     814975                       # Number of committed floating point instructions. (Count)
system.cpu.commit.integer                    38702115                       # Number of committed integer instructions. (Count)
system.cpu.commit.functionCalls                304177                       # Number of function calls committed. (Count)
system.cpu.commit.committedInstType_0::No_OpClass        53708      0.14%      0.14% # Class of committed instruction (Count)
system.cpu.commit.committedInstType_0::IntAlu     28464930     72.25%     72.39% # Class of committed instruction (Count)
system.cpu.commit.committedInstType_0::IntMult       128911      0.33%     72.72% # Class of committed instruction (Count)
system.cpu.commit.committedInstType_0::IntDiv       126710      0.32%     73.04% # Class of committed instruction (Count)
system.cpu.commit.committedInstType_0::FloatAdd        35441      0.09%     73.13% # Class of committed instruction (Count)
system.cpu.commit.committedInstType_0::FloatCmp            0      0.00%     73.13% # Class of committed instruction (Count)
system.cpu.commit.committedInstType_0::FloatCvt           32      0.00%     73.13% # Class of committed instruction (Count)
system.cpu.commit.committedInstType_0::FloatMult            0      0.00%     73.13% # Class of committed instruction (Count)
system.cpu.commit.committedInstType_0::FloatMultAcc            0      0.00%     73.13% # Class of committed instruction (Count)
system.cpu.commit.committedInstType_0::FloatDiv            0      0.00%     73.13% # Class of committed instruction (Count)
system.cpu.commit.committedInstType_0::FloatMisc            0      0.00%     73.13% # Class of committed instruction (Count)
system.cpu.commit.committedInstType_0::FloatSqrt            0      0.00%     73.13% # Class of committed instruction (Count)
system.cpu.commit.committedInstType_0::SimdAdd            0      0.00%     73.13% # Class of committed instruction (Count)
system.cpu.commit.committedInstType_0::SimdAddAcc            0      0.00%     73.13% # Class of committed instruction (Count)
system.cpu.commit.committedInstType_0::SimdAlu        70850      0.18%     73.31% # Class of committed instruction (Count)
system.cpu.commit.committedInstType_0::SimdCmp            0      0.00%     73.31% # Class of committed instruction (Count)
system.cpu.commit.committedInstType_0::SimdCvt       141708      0.36%     73.67% # Class of committed instruction (Count)
system.cpu.commit.committedInstType_0::SimdMisc       389683      0.99%     74.66% # Class of committed instruction (Count)
system.cpu.commit.committedInstType_0::SimdMult            0      0.00%     74.66% # Class of committed instruction (Count)
system.cpu.commit.committedInstType_0::SimdMultAcc            0      0.00%     74.66% # Class of committed instruction (Count)
system.cpu.commit.committedInstType_0::SimdShift            0      0.00%     74.66% # Class of committed instruction (Count)
system.cpu.commit.committedInstType_0::SimdShiftAcc            0      0.00%     74.66% # Class of committed instruction (Count)
system.cpu.commit.committedInstType_0::SimdDiv            0      0.00%     74.66% # Class of committed instruction (Count)
system.cpu.commit.committedInstType_0::SimdSqrt            0      0.00%     74.66% # Class of committed instruction (Count)
system.cpu.commit.committedInstType_0::SimdFloatAdd            0      0.00%     74.66% # Class of committed instruction (Count)
system.cpu.commit.committedInstType_0::SimdFloatAlu            0      0.00%     74.66% # Class of committed instruction (Count)
system.cpu.commit.committedInstType_0::SimdFloatCmp            0      0.00%     74.66% # Class of committed instruction (Count)
system.cpu.commit.committedInstType_0::SimdFloatCvt            0      0.00%     74.66% # Class of committed instruction (Count)
system.cpu.commit.committedInstType_0::SimdFloatDiv            0      0.00%     74.66% # Class of committed instruction (Count)
system.cpu.commit.committedInstType_0::SimdFloatMisc            0      0.00%     74.66% # Class of committed instruction (Count)
system.cpu.commit.committedInstType_0::SimdFloatMult            0      0.00%     74.66% # Class of committed instruction (Count)
system.cpu.commit.committedInstType_0::SimdFloatMultAcc            0      0.00%     74.66% # Class of committed instruction (Count)
system.cpu.commit.committedInstType_0::SimdFloatSqrt            0      0.00%     74.66% # Class of committed instruction (Count)
system.cpu.commit.committedInstType_0::SimdReduceAdd            0      0.00%     74.66% # Class of committed instruction (Count)
system.cpu.commit.committedInstType_0::SimdReduceAlu            0      0.00%     74.66% # Class of committed instruction (Count)
system.cpu.commit.committedInstType_0::SimdReduceCmp            0      0.00%     74.66% # Class of committed instruction (Count)
system.cpu.commit.committedInstType_0::SimdFloatReduceAdd            0      0.00%     74.66% # Class of committed instruction (Count)
system.cpu.commit.committedInstType_0::SimdFloatReduceCmp            0      0.00%     74.66% # Class of committed instruction (Count)
system.cpu.commit.committedInstType_0::SimdAes            0      0.00%     74.66% # Class of committed instruction (Count)
system.cpu.commit.committedInstType_0::SimdAesMix            0      0.00%     74.66% # Class of committed instruction (Count)
system.cpu.commit.committedInstType_0::SimdSha1Hash            0      0.00%     74.66% # Class of committed instruction (Count)
system.cpu.commit.committedInstType_0::SimdSha1Hash2            0      0.00%     74.66% # Class of committed instruction (Count)
system.cpu.commit.committedInstType_0::SimdSha256Hash            0      0.00%     74.66% # Class of committed instruction (Count)
system.cpu.commit.committedInstType_0::SimdSha256Hash2            0      0.00%     74.66% # Class of committed instruction (Count)
system.cpu.commit.committedInstType_0::SimdShaSigma2            0      0.00%     74.66% # Class of committed instruction (Count)
system.cpu.commit.committedInstType_0::SimdShaSigma3            0      0.00%     74.66% # Class of committed instruction (Count)
system.cpu.commit.committedInstType_0::SimdPredAlu            0      0.00%     74.66% # Class of committed instruction (Count)
system.cpu.commit.committedInstType_0::MemRead      6707235     17.02%     91.68% # Class of committed instruction (Count)
system.cpu.commit.committedInstType_0::MemWrite      3206235      8.14%     99.82% # Class of committed instruction (Count)
system.cpu.commit.committedInstType_0::FloatMemRead        70918      0.18%    100.00% # Class of committed instruction (Count)
system.cpu.commit.committedInstType_0::FloatMemWrite           64      0.00%    100.00% # Class of committed instruction (Count)
system.cpu.commit.committedInstType_0::IprAccess            0      0.00%    100.00% # Class of committed instruction (Count)
system.cpu.commit.committedInstType_0::InstPrefetch            0      0.00%    100.00% # Class of committed instruction (Count)
system.cpu.commit.committedInstType_0::total     39396425                       # Class of committed instruction (Count)
system.cpu.commit.commitEligibleSamples        250342                       # number cycles where commit BW limit reached (Cycle)
system.cpu.dcache.demandHits::cpu.data        9467979                       # number of demand (read+write) hits (Count)
system.cpu.dcache.demandHits::total           9467979                       # number of demand (read+write) hits (Count)
system.cpu.dcache.overallHits::cpu.data       9467979                       # number of overall hits (Count)
system.cpu.dcache.overallHits::total          9467979                       # number of overall hits (Count)
system.cpu.dcache.demandMisses::cpu.data       108804                       # number of demand (read+write) misses (Count)
system.cpu.dcache.demandMisses::total          108804                       # number of demand (read+write) misses (Count)
system.cpu.dcache.overallMisses::cpu.data       108804                       # number of overall misses (Count)
system.cpu.dcache.overallMisses::total         108804                       # number of overall misses (Count)
system.cpu.dcache.demandMissLatency::cpu.data   1953261998                       # number of demand (read+write) miss ticks (Tick)
system.cpu.dcache.demandMissLatency::total   1953261998                       # number of demand (read+write) miss ticks (Tick)
system.cpu.dcache.overallMissLatency::cpu.data   1953261998                       # number of overall miss ticks (Tick)
system.cpu.dcache.overallMissLatency::total   1953261998                       # number of overall miss ticks (Tick)
system.cpu.dcache.demandAccesses::cpu.data      9576783                       # number of demand (read+write) accesses (Count)
system.cpu.dcache.demandAccesses::total       9576783                       # number of demand (read+write) accesses (Count)
system.cpu.dcache.overallAccesses::cpu.data      9576783                       # number of overall (read+write) accesses (Count)
system.cpu.dcache.overallAccesses::total      9576783                       # number of overall (read+write) accesses (Count)
system.cpu.dcache.demandMissRate::cpu.data     0.011361                       # miss rate for demand accesses (Ratio)
system.cpu.dcache.demandMissRate::total      0.011361                       # miss rate for demand accesses (Ratio)
system.cpu.dcache.overallMissRate::cpu.data     0.011361                       # miss rate for overall accesses (Ratio)
system.cpu.dcache.overallMissRate::total     0.011361                       # miss rate for overall accesses (Ratio)
system.cpu.dcache.demandAvgMissLatency::cpu.data 17952.115713                       # average overall miss latency in ticks ((Tick/Count))
system.cpu.dcache.demandAvgMissLatency::total 17952.115713                       # average overall miss latency in ticks ((Tick/Count))
system.cpu.dcache.overallAvgMissLatency::cpu.data 17952.115713                       # average overall miss latency ((Tick/Count))
system.cpu.dcache.overallAvgMissLatency::total 17952.115713                       # average overall miss latency ((Tick/Count))
system.cpu.dcache.blockedCycles::no_mshrs         2600                       # number of cycles access was blocked (Cycle)
system.cpu.dcache.blockedCycles::no_targets            0                       # number of cycles access was blocked (Cycle)
system.cpu.dcache.blockedCauses::no_mshrs          104                       # number of times access was blocked (Count)
system.cpu.dcache.blockedCauses::no_targets            0                       # number of times access was blocked (Count)
system.cpu.dcache.avgBlocked::no_mshrs             25                       # average number of cycles each access was blocked ((Cycle/Count))
system.cpu.dcache.avgBlocked::no_targets          nan                       # average number of cycles each access was blocked ((Cycle/Count))
system.cpu.dcache.writebacks::writebacks        38385                       # number of writebacks (Count)
system.cpu.dcache.writebacks::total             38385                       # number of writebacks (Count)
system.cpu.dcache.demandMshrHits::cpu.data        20901                       # number of demand (read+write) MSHR hits (Count)
system.cpu.dcache.demandMshrHits::total         20901                       # number of demand (read+write) MSHR hits (Count)
system.cpu.dcache.overallMshrHits::cpu.data        20901                       # number of overall MSHR hits (Count)
system.cpu.dcache.overallMshrHits::total        20901                       # number of overall MSHR hits (Count)
system.cpu.dcache.demandMshrMisses::cpu.data        87903                       # number of demand (read+write) MSHR misses (Count)
system.cpu.dcache.demandMshrMisses::total        87903                       # number of demand (read+write) MSHR misses (Count)
system.cpu.dcache.overallMshrMisses::cpu.data        87903                       # number of overall MSHR misses (Count)
system.cpu.dcache.overallMshrMisses::total        87903                       # number of overall MSHR misses (Count)
system.cpu.dcache.demandMshrMissLatency::cpu.data   1386477498                       # number of demand (read+write) MSHR miss ticks (Tick)
system.cpu.dcache.demandMshrMissLatency::total   1386477498                       # number of demand (read+write) MSHR miss ticks (Tick)
system.cpu.dcache.overallMshrMissLatency::cpu.data   1386477498                       # number of overall MSHR miss ticks (Tick)
system.cpu.dcache.overallMshrMissLatency::total   1386477498                       # number of overall MSHR miss ticks (Tick)
system.cpu.dcache.demandMshrMissRate::cpu.data     0.009179                       # mshr miss ratio for demand accesses (Ratio)
system.cpu.dcache.demandMshrMissRate::total     0.009179                       # mshr miss ratio for demand accesses (Ratio)
system.cpu.dcache.overallMshrMissRate::cpu.data     0.009179                       # mshr miss ratio for overall accesses (Ratio)
system.cpu.dcache.overallMshrMissRate::total     0.009179                       # mshr miss ratio for overall accesses (Ratio)
system.cpu.dcache.demandAvgMshrMissLatency::cpu.data 15772.812054                       # average overall mshr miss latency ((Tick/Count))
system.cpu.dcache.demandAvgMshrMissLatency::total 15772.812054                       # average overall mshr miss latency ((Tick/Count))
system.cpu.dcache.overallAvgMshrMissLatency::cpu.data 15772.812054                       # average overall mshr miss latency ((Tick/Count))
system.cpu.dcache.overallAvgMshrMissLatency::total 15772.812054                       # average overall mshr miss latency ((Tick/Count))
system.cpu.dcache.replacements                  87839                       # number of replacements (Count)
system.cpu.dcache.ReadReq.hits::cpu.data      6280369                       # number of ReadReq hits (Count)
system.cpu.dcache.ReadReq.hits::total         6280369                       # number of ReadReq hits (Count)
system.cpu.dcache.ReadReq.misses::cpu.data        90113                       # number of ReadReq misses (Count)
system.cpu.dcache.ReadReq.misses::total         90113                       # number of ReadReq misses (Count)
system.cpu.dcache.ReadReq.missLatency::cpu.data   1575899500                       # number of ReadReq miss ticks (Tick)
system.cpu.dcache.ReadReq.missLatency::total   1575899500                       # number of ReadReq miss ticks (Tick)
system.cpu.dcache.ReadReq.accesses::cpu.data      6370482                       # number of ReadReq accesses(hits+misses) (Count)
system.cpu.dcache.ReadReq.accesses::total      6370482                       # number of ReadReq accesses(hits+misses) (Count)
system.cpu.dcache.ReadReq.missRate::cpu.data     0.014145                       # miss rate for ReadReq accesses (Ratio)
system.cpu.dcache.ReadReq.missRate::total     0.014145                       # miss rate for ReadReq accesses (Ratio)
system.cpu.dcache.ReadReq.avgMissLatency::cpu.data 17488.037242                       # average ReadReq miss latency ((Tick/Count))
system.cpu.dcache.ReadReq.avgMissLatency::total 17488.037242                       # average ReadReq miss latency ((Tick/Count))
system.cpu.dcache.ReadReq.mshrHits::cpu.data        20898                       # number of ReadReq MSHR hits (Count)
system.cpu.dcache.ReadReq.mshrHits::total        20898                       # number of ReadReq MSHR hits (Count)
system.cpu.dcache.ReadReq.mshrMisses::cpu.data        69215                       # number of ReadReq MSHR misses (Count)
system.cpu.dcache.ReadReq.mshrMisses::total        69215                       # number of ReadReq MSHR misses (Count)
system.cpu.dcache.ReadReq.mshrMissLatency::cpu.data   1027937000                       # number of ReadReq MSHR miss ticks (Tick)
system.cpu.dcache.ReadReq.mshrMissLatency::total   1027937000                       # number of ReadReq MSHR miss ticks (Tick)
system.cpu.dcache.ReadReq.mshrMissRate::cpu.data     0.010865                       # mshr miss rate for ReadReq accesses (Ratio)
system.cpu.dcache.ReadReq.mshrMissRate::total     0.010865                       # mshr miss rate for ReadReq accesses (Ratio)
system.cpu.dcache.ReadReq.avgMshrMissLatency::cpu.data 14851.361699                       # average ReadReq mshr miss latency ((Tick/Count))
system.cpu.dcache.ReadReq.avgMshrMissLatency::total 14851.361699                       # average ReadReq mshr miss latency ((Tick/Count))
system.cpu.dcache.WriteReq.hits::cpu.data      3187610                       # number of WriteReq hits (Count)
system.cpu.dcache.WriteReq.hits::total        3187610                       # number of WriteReq hits (Count)
system.cpu.dcache.WriteReq.misses::cpu.data        18691                       # number of WriteReq misses (Count)
system.cpu.dcache.WriteReq.misses::total        18691                       # number of WriteReq misses (Count)
system.cpu.dcache.WriteReq.missLatency::cpu.data    377362498                       # number of WriteReq miss ticks (Tick)
system.cpu.dcache.WriteReq.missLatency::total    377362498                       # number of WriteReq miss ticks (Tick)
system.cpu.dcache.WriteReq.accesses::cpu.data      3206301                       # number of WriteReq accesses(hits+misses) (Count)
system.cpu.dcache.WriteReq.accesses::total      3206301                       # number of WriteReq accesses(hits+misses) (Count)
system.cpu.dcache.WriteReq.missRate::cpu.data     0.005829                       # miss rate for WriteReq accesses (Ratio)
system.cpu.dcache.WriteReq.missRate::total     0.005829                       # miss rate for WriteReq accesses (Ratio)
system.cpu.dcache.WriteReq.avgMissLatency::cpu.data 20189.529613                       # average WriteReq miss latency ((Tick/Count))
system.cpu.dcache.WriteReq.avgMissLatency::total 20189.529613                       # average WriteReq miss latency ((Tick/Count))
system.cpu.dcache.WriteReq.mshrHits::cpu.data            3                       # number of WriteReq MSHR hits (Count)
system.cpu.dcache.WriteReq.mshrHits::total            3                       # number of WriteReq MSHR hits (Count)
system.cpu.dcache.WriteReq.mshrMisses::cpu.data        18688                       # number of WriteReq MSHR misses (Count)
system.cpu.dcache.WriteReq.mshrMisses::total        18688                       # number of WriteReq MSHR misses (Count)
system.cpu.dcache.WriteReq.mshrMissLatency::cpu.data    358540498                       # number of WriteReq MSHR miss ticks (Tick)
system.cpu.dcache.WriteReq.mshrMissLatency::total    358540498                       # number of WriteReq MSHR miss ticks (Tick)
system.cpu.dcache.WriteReq.mshrMissRate::cpu.data     0.005829                       # mshr miss rate for WriteReq accesses (Ratio)
system.cpu.dcache.WriteReq.mshrMissRate::total     0.005829                       # mshr miss rate for WriteReq accesses (Ratio)
system.cpu.dcache.WriteReq.avgMshrMissLatency::cpu.data 19185.600278                       # average WriteReq mshr miss latency ((Tick/Count))
system.cpu.dcache.WriteReq.avgMshrMissLatency::total 19185.600278                       # average WriteReq mshr miss latency ((Tick/Count))
system.cpu.dcache.power_state.pwrStateResidencyTicks::UNDEFINED  22738367000                       # Cumulative time (in ticks) in various power states (Tick)
system.cpu.dcache.tags.tagsInUse            63.990704                       # Average ticks per tags in use ((Tick/Count))
system.cpu.dcache.tags.totalRefs              9555882                       # Total number of references to valid blocks. (Count)
system.cpu.dcache.tags.sampledRefs              87903                       # Sample count of references to valid blocks. (Count)
system.cpu.dcache.tags.avgRefs             108.709396                       # Average number of references to valid blocks. ((Count/Count))
system.cpu.dcache.tags.warmupTick            12531500                       # The tick when the warmup percentage was hit. (Tick)
system.cpu.dcache.tags.occupancies::cpu.data    63.990704                       # Average occupied blocks per tick, per requestor ((Count/Tick))
system.cpu.dcache.tags.avgOccs::cpu.data     0.999855                       # Average percentage of cache occupancy ((Ratio/Tick))
system.cpu.dcache.tags.avgOccs::total        0.999855                       # Average percentage of cache occupancy ((Ratio/Tick))
system.cpu.dcache.tags.occupanciesTaskId::1024           64                       # Occupied blocks per task id (Count)
system.cpu.dcache.tags.ageTaskId_1024::0           44                       # Occupied blocks per task id, per block age (Count)
system.cpu.dcache.tags.ageTaskId_1024::1            3                       # Occupied blocks per task id, per block age (Count)
system.cpu.dcache.tags.ageTaskId_1024::2           12                       # Occupied blocks per task id, per block age (Count)
system.cpu.dcache.tags.ageTaskId_1024::3            5                       # Occupied blocks per task id, per block age (Count)
system.cpu.dcache.tags.ratioOccsTaskId::1024            1                       # Ratio of occupied blocks and all blocks, per task id (Ratio)
system.cpu.dcache.tags.tagAccesses           19241469                       # Number of tag accesses (Count)
system.cpu.dcache.tags.dataAccesses          19241469                       # Number of data accesses (Count)
system.cpu.dcache.tags.power_state.pwrStateResidencyTicks::UNDEFINED  22738367000                       # Cumulative time (in ticks) in various power states (Tick)
system.cpu.decode.idleCycles                 20057614                       # Number of cycles decode is idle (Cycle)
system.cpu.decode.blockedCycles              17056453                       # Number of cycles decode is blocked (Cycle)
system.cpu.decode.runCycles                   3391216                       # Number of cycles decode is running (Cycle)
system.cpu.decode.unblockCycles               2993401                       # Number of cycles decode is unblocking (Cycle)
system.cpu.decode.squashCycles                 192124                       # Number of cycles decode is squashing (Cycle)
system.cpu.decode.branchResolved              2161590                       # Number of times decode resolved a branch (Count)
system.cpu.decode.branchMispred                 53575                       # Number of times decode detected a branch misprediction (Count)
system.cpu.decode.decodedInsts               42487470                       # Number of instructions handled by decode (Count)
system.cpu.decode.squashedInsts                143464                       # Number of squashed instructions handled by decode (Count)
system.cpu.fetch.icacheStallCycles           27870114                       # Number of cycles fetch is stalled on an Icache miss (Cycle)
system.cpu.fetch.insts                       27626157                       # Number of instructions fetch has processed (Count)
system.cpu.fetch.branches                     4615115                       # Number of branches that fetch encountered (Count)
system.cpu.fetch.predictedBranches            2905927                       # Number of branches that fetch has predicted taken (Count)
system.cpu.fetch.cycles                      15573443                       # Number of cycles fetch has run and was not squashing or blocked (Cycle)
system.cpu.fetch.squashCycles                  491388                       # Number of cycles fetch has spent squashing (Cycle)
system.cpu.fetch.miscStallCycles                  111                       # Number of cycles fetch has spent waiting on interrupts, or bad addresses, or out of MSHRs (Cycle)
system.cpu.fetch.pendingTrapStallCycles          1435                       # Number of stall cycles due to pending traps (Cycle)
system.cpu.fetch.icacheWaitRetryStallCycles           11                       # Number of stall cycles due to full MSHR (Cycle)
system.cpu.fetch.cacheLines                   3957938                       # Number of cache lines fetched (Count)
system.cpu.fetch.icacheSquashes                 85968                       # Number of outstanding Icache misses that were squashed (Count)
system.cpu.fetch.nisnDist::samples           43690808                       # Number of instructions fetched each cycle (Total) (Count)
system.cpu.fetch.nisnDist::mean              1.123156                       # Number of instructions fetched each cycle (Total) (Count)
system.cpu.fetch.nisnDist::stdev             2.542288                       # Number of instructions fetched each cycle (Total) (Count)
system.cpu.fetch.nisnDist::underflows               0      0.00%      0.00% # Number of instructions fetched each cycle (Total) (Count)
system.cpu.fetch.nisnDist::0                 35294755     80.78%     80.78% # Number of instructions fetched each cycle (Total) (Count)
system.cpu.fetch.nisnDist::1                   703421      1.61%     82.39% # Number of instructions fetched each cycle (Total) (Count)
system.cpu.fetch.nisnDist::2                   485449      1.11%     83.50% # Number of instructions fetched each cycle (Total) (Count)
system.cpu.fetch.nisnDist::3                   729243      1.67%     85.17% # Number of instructions fetched each cycle (Total) (Count)
system.cpu.fetch.nisnDist::4                   612446      1.40%     86.57% # Number of instructions fetched each cycle (Total) (Count)
system.cpu.fetch.nisnDist::5                   643661      1.47%     88.05% # Number of instructions fetched each cycle (Total) (Count)
system.cpu.fetch.nisnDist::6                   850253      1.95%     89.99% # Number of instructions fetched each cycle (Total) (Count)
system.cpu.fetch.nisnDist::7                   532711      1.22%     91.21% # Number of instructions fetched each cycle (Total) (Count)
system.cpu.fetch.nisnDist::8                  3838869      8.79%    100.00% # Number of instructions fetched each cycle (Total) (Count)
system.cpu.fetch.nisnDist::overflows                0      0.00%    100.00% # Number of instructions fetched each cycle (Total) (Count)
system.cpu.fetch.nisnDist::min_value                0                       # Number of instructions fetched each cycle (Total) (Count)
system.cpu.fetch.nisnDist::max_value                8                       # Number of instructions fetched each cycle (Total) (Count)
system.cpu.fetch.nisnDist::total             43690808                       # Number of instructions fetched each cycle (Total) (Count)
system.cpu.fetch.branchRate                  0.101483                       # Number of branch fetches per cycle (Ratio)
system.cpu.fetch.rate                        0.607479                       # Number of inst fetches per cycle ((Count/Cycle))
system.cpu.icache.demandHits::cpu.inst        2859233                       # number of demand (read+write) hits (Count)
system.cpu.icache.demandHits::total           2859233                       # number of demand (read+write) hits (Count)
system.cpu.icache.overallHits::cpu.inst       2859233                       # number of overall hits (Count)
system.cpu.icache.overallHits::total          2859233                       # number of overall hits (Count)
system.cpu.icache.demandMisses::cpu.inst      1098705                       # number of demand (read+write) misses (Count)
system.cpu.icache.demandMisses::total         1098705                       # number of demand (read+write) misses (Count)
system.cpu.icache.overallMisses::cpu.inst      1098705                       # number of overall misses (Count)
system.cpu.icache.overallMisses::total        1098705                       # number of overall misses (Count)
system.cpu.icache.demandMissLatency::cpu.inst  14353154999                       # number of demand (read+write) miss ticks (Tick)
system.cpu.icache.demandMissLatency::total  14353154999                       # number of demand (read+write) miss ticks (Tick)
system.cpu.icache.overallMissLatency::cpu.inst  14353154999                       # number of overall miss ticks (Tick)
system.cpu.icache.overallMissLatency::total  14353154999                       # number of overall miss ticks (Tick)
system.cpu.icache.demandAccesses::cpu.inst      3957938                       # number of demand (read+write) accesses (Count)
system.cpu.icache.demandAccesses::total       3957938                       # number of demand (read+write) accesses (Count)
system.cpu.icache.overallAccesses::cpu.inst      3957938                       # number of overall (read+write) accesses (Count)
system.cpu.icache.overallAccesses::total      3957938                       # number of overall (read+write) accesses (Count)
system.cpu.icache.demandMissRate::cpu.inst     0.277595                       # miss rate for demand accesses (Ratio)
system.cpu.icache.demandMissRate::total      0.277595                       # miss rate for demand accesses (Ratio)
system.cpu.icache.overallMissRate::cpu.inst     0.277595                       # miss rate for overall accesses (Ratio)
system.cpu.icache.overallMissRate::total     0.277595                       # miss rate for overall accesses (Ratio)
system.cpu.icache.demandAvgMissLatency::cpu.inst 13063.702267                       # average overall miss latency in ticks ((Tick/Count))
system.cpu.icache.demandAvgMissLatency::total 13063.702267                       # average overall miss latency in ticks ((Tick/Count))
system.cpu.icache.overallAvgMissLatency::cpu.inst 13063.702267                       # average overall miss latency ((Tick/Count))
system.cpu.icache.overallAvgMissLatency::total 13063.702267                       # average overall miss latency ((Tick/Count))
system.cpu.icache.blockedCycles::no_mshrs          334                       # number of cycles access was blocked (Cycle)
system.cpu.icache.blockedCycles::no_targets            0                       # number of cycles access was blocked (Cycle)
system.cpu.icache.blockedCauses::no_mshrs            6                       # number of times access was blocked (Count)
system.cpu.icache.blockedCauses::no_targets            0                       # number of times access was blocked (Count)
system.cpu.icache.avgBlocked::no_mshrs      55.666667                       # average number of cycles each access was blocked ((Cycle/Count))
system.cpu.icache.avgBlocked::no_targets          nan                       # average number of cycles each access was blocked ((Cycle/Count))
system.cpu.icache.demandMshrHits::cpu.inst         1586                       # number of demand (read+write) MSHR hits (Count)
system.cpu.icache.demandMshrHits::total          1586                       # number of demand (read+write) MSHR hits (Count)
system.cpu.icache.overallMshrHits::cpu.inst         1586                       # number of overall MSHR hits (Count)
system.cpu.icache.overallMshrHits::total         1586                       # number of overall MSHR hits (Count)
system.cpu.icache.demandMshrMisses::cpu.inst      1097119                       # number of demand (read+write) MSHR misses (Count)
system.cpu.icache.demandMshrMisses::total      1097119                       # number of demand (read+write) MSHR misses (Count)
system.cpu.icache.overallMshrMisses::cpu.inst      1097119                       # number of overall MSHR misses (Count)
system.cpu.icache.overallMshrMisses::total      1097119                       # number of overall MSHR misses (Count)
system.cpu.icache.demandMshrMissLatency::cpu.inst  13235697500                       # number of demand (read+write) MSHR miss ticks (Tick)
system.cpu.icache.demandMshrMissLatency::total  13235697500                       # number of demand (read+write) MSHR miss ticks (Tick)
system.cpu.icache.overallMshrMissLatency::cpu.inst  13235697500                       # number of overall MSHR miss ticks (Tick)
system.cpu.icache.overallMshrMissLatency::total  13235697500                       # number of overall MSHR miss ticks (Tick)
system.cpu.icache.demandMshrMissRate::cpu.inst     0.277195                       # mshr miss ratio for demand accesses (Ratio)
system.cpu.icache.demandMshrMissRate::total     0.277195                       # mshr miss ratio for demand accesses (Ratio)
system.cpu.icache.overallMshrMissRate::cpu.inst     0.277195                       # mshr miss ratio for overall accesses (Ratio)
system.cpu.icache.overallMshrMissRate::total     0.277195                       # mshr miss ratio for overall accesses (Ratio)
system.cpu.icache.demandAvgMshrMissLatency::cpu.inst 12064.049114                       # average overall mshr miss latency ((Tick/Count))
system.cpu.icache.demandAvgMshrMissLatency::total 12064.049114                       # average overall mshr miss latency ((Tick/Count))
system.cpu.icache.overallAvgMshrMissLatency::cpu.inst 12064.049114                       # average overall mshr miss latency ((Tick/Count))
system.cpu.icache.overallAvgMshrMissLatency::total 12064.049114                       # average overall mshr miss latency ((Tick/Count))
system.cpu.icache.replacements                1097054                       # number of replacements (Count)
system.cpu.icache.ReadReq.hits::cpu.inst      2859233                       # number of ReadReq hits (Count)
system.cpu.icache.ReadReq.hits::total         2859233                       # number of ReadReq hits (Count)
system.cpu.icache.ReadReq.misses::cpu.inst      1098705                       # number of ReadReq misses (Count)
system.cpu.icache.ReadReq.misses::total       1098705                       # number of ReadReq misses (Count)
system.cpu.icache.ReadReq.missLatency::cpu.inst  14353154999                       # number of ReadReq miss ticks (Tick)
system.cpu.icache.ReadReq.missLatency::total  14353154999                       # number of ReadReq miss ticks (Tick)
system.cpu.icache.ReadReq.accesses::cpu.inst      3957938                       # number of ReadReq accesses(hits+misses) (Count)
system.cpu.icache.ReadReq.accesses::total      3957938                       # number of ReadReq accesses(hits+misses) (Count)
system.cpu.icache.ReadReq.missRate::cpu.inst     0.277595                       # miss rate for ReadReq accesses (Ratio)
system.cpu.icache.ReadReq.missRate::total     0.277595                       # miss rate for ReadReq accesses (Ratio)
system.cpu.icache.ReadReq.avgMissLatency::cpu.inst 13063.702267                       # average ReadReq miss latency ((Tick/Count))
system.cpu.icache.ReadReq.avgMissLatency::total 13063.702267                       # average ReadReq miss latency ((Tick/Count))
system.cpu.icache.ReadReq.mshrHits::cpu.inst         1586                       # number of ReadReq MSHR hits (Count)
system.cpu.icache.ReadReq.mshrHits::total         1586                       # number of ReadReq MSHR hits (Count)
system.cpu.icache.ReadReq.mshrMisses::cpu.inst      1097119                       # number of ReadReq MSHR misses (Count)
system.cpu.icache.ReadReq.mshrMisses::total      1097119                       # number of ReadReq MSHR misses (Count)
system.cpu.icache.ReadReq.mshrMissLatency::cpu.inst  13235697500                       # number of ReadReq MSHR miss ticks (Tick)
system.cpu.icache.ReadReq.mshrMissLatency::total  13235697500                       # number of ReadReq MSHR miss ticks (Tick)
system.cpu.icache.ReadReq.mshrMissRate::cpu.inst     0.277195                       # mshr miss rate for ReadReq accesses (Ratio)
system.cpu.icache.ReadReq.mshrMissRate::total     0.277195                       # mshr miss rate for ReadReq accesses (Ratio)
system.cpu.icache.ReadReq.avgMshrMissLatency::cpu.inst 12064.049114                       # average ReadReq mshr miss latency ((Tick/Count))
system.cpu.icache.ReadReq.avgMshrMissLatency::total 12064.049114                       # average ReadReq mshr miss latency ((Tick/Count))
system.cpu.icache.power_state.pwrStateResidencyTicks::UNDEFINED  22738367000                       # Cumulative time (in ticks) in various power states (Tick)
system.cpu.icache.tags.tagsInUse            63.988487                       # Average ticks per tags in use ((Tick/Count))
system.cpu.icache.tags.totalRefs              3956351                       # Total number of references to valid blocks. (Count)
system.cpu.icache.tags.sampledRefs            1097118                       # Sample count of references to valid blocks. (Count)
system.cpu.icache.tags.avgRefs               3.606131                       # Average number of references to valid blocks. ((Count/Count))
system.cpu.icache.tags.warmupTick             8136500                       # The tick when the warmup percentage was hit. (Tick)
system.cpu.icache.tags.occupancies::cpu.inst    63.988487                       # Average occupied blocks per tick, per requestor ((Count/Tick))
system.cpu.icache.tags.avgOccs::cpu.inst     0.999820                       # Average percentage of cache occupancy ((Ratio/Tick))
system.cpu.icache.tags.avgOccs::total        0.999820                       # Average percentage of cache occupancy ((Ratio/Tick))
system.cpu.icache.tags.occupanciesTaskId::1024           64                       # Occupied blocks per task id (Count)
system.cpu.icache.tags.ageTaskId_1024::0           57                       # Occupied blocks per task id, per block age (Count)
system.cpu.icache.tags.ageTaskId_1024::1            1                       # Occupied blocks per task id, per block age (Count)
system.cpu.icache.tags.ageTaskId_1024::4            6                       # Occupied blocks per task id, per block age (Count)
system.cpu.icache.tags.ratioOccsTaskId::1024            1                       # Ratio of occupied blocks and all blocks, per task id (Ratio)
system.cpu.icache.tags.tagAccesses            9012994                       # Number of tag accesses (Count)
system.cpu.icache.tags.dataAccesses           9012994                       # Number of data accesses (Count)
system.cpu.icache.tags.power_state.pwrStateResidencyTicks::UNDEFINED  22738367000                       # Cumulative time (in ticks) in various power states (Tick)
system.cpu.iew.idleCycles                           0                       # Number of cycles IEW is idle (Cycle)
system.cpu.iew.squashCycles                    192124                       # Number of cycles IEW is squashing (Cycle)
system.cpu.iew.blockCycles                     145839                       # Number of cycles IEW is blocking (Cycle)
system.cpu.iew.unblockCycles                      406                       # Number of cycles IEW is unblocking (Cycle)
system.cpu.iew.dispatchedInsts               41288864                       # Number of instructions dispatched to IQ (Count)
system.cpu.iew.dispSquashedInsts                74119                       # Number of squashed instructions skipped by dispatch (Count)
system.cpu.iew.dispLoadInsts                  7288061                       # Number of dispatched load instructions (Count)
system.cpu.iew.dispStoreInsts                 3304496                       # Number of dispatched store instructions (Count)
system.cpu.iew.dispNonSpecInsts                  5893                       # Number of dispatched non-speculative instructions (Count)
system.cpu.iew.iqFullEvents                         0                       # Number of times the IQ has become full, causing a stall (Count)
system.cpu.iew.lsqFullEvents                      407                       # Number of times the LSQ has become full, causing a stall (Count)
system.cpu.iew.memOrderViolationEvents            146                       # Number of memory order violations (Count)
system.cpu.iew.predictedTakenIncorrect          82875                       # Number of branches that were predicted taken incorrectly (Count)
system.cpu.iew.predictedNotTakenIncorrect        91535                       # Number of branches that were predicted not taken incorrectly (Count)
system.cpu.iew.branchMispredicts               174410                       # Number of branch mispredicts detected at execute (Count)
system.cpu.iew.instsToCommit                 40580761                       # Cumulative count of insts sent to commit (Count)
system.cpu.iew.writebackCount                40562252                       # Cumulative count of insts written-back (Count)
system.cpu.iew.producerInst                  26086235                       # Number of instructions producing a value (Count)
system.cpu.iew.consumerInst                  35701983                       # Number of instructions consuming a value (Count)
system.cpu.iew.wbRate                        0.891934                       # Insts written-back per cycle ((Count/Cycle))
system.cpu.iew.wbFanout                      0.730666                       # Average fanout of values written-back ((Count/Count))
system.cpu.interrupts.clk_domain.clock           8000                       # Clock period in ticks (Tick)
system.cpu.lsq0.forwLoads                      783631                       # Number of loads that had data forwarded from stores (Count)
system.cpu.lsq0.squashedLoads                  509908                       # Number of loads squashed (Count)
system.cpu.lsq0.ignoredResponses                  321                       # Number of memory responses ignored because the instruction is squashed (Count)
system.cpu.lsq0.memOrderViolation                 146                       # Number of memory ordering violations (Count)
system.cpu.lsq0.squashedStores                  98197                       # Number of stores squashed (Count)
system.cpu.lsq0.rescheduledLoads                  175                       # Number of loads that were rescheduled (Count)
system.cpu.lsq0.blockedByCache                     36                       # Number of times an access to memory failed due to the cache being blocked (Count)
system.cpu.lsq0.loadToUse::samples            6778153                       # Distribution of cycle latency between the first time a load is issued and its completion (Unspecified)
system.cpu.lsq0.loadToUse::mean              3.448283                       # Distribution of cycle latency between the first time a load is issued and its completion (Unspecified)
system.cpu.lsq0.loadToUse::stdev             5.777168                       # Distribution of cycle latency between the first time a load is issued and its completion (Unspecified)
system.cpu.lsq0.loadToUse::0-9                6692171     98.73%     98.73% # Distribution of cycle latency between the first time a load is issued and its completion (Unspecified)
system.cpu.lsq0.loadToUse::10-19                 2476      0.04%     98.77% # Distribution of cycle latency between the first time a load is issued and its completion (Unspecified)
[...]
system.mem_ctrls.dram.numReads::cpu.inst         1086                       # Number of read requests responded to by this memory (Count)
system.mem_ctrls.dram.numReads::cpu.data         4994                       # Number of read requests responded to by this memory (Count)
system.mem_ctrls.dram.numReads::total            6080                       # Number of read requests responded to by this memory (Count)
system.mem_ctrls.dram.numWrites::writebacks         3429                       # Number of write requests responded to by this memory (Count)
system.mem_ctrls.dram.numWrites::total           3429                       # Number of write requests responded to by this memory (Count)
system.mem_ctrls.dram.bwRead::cpu.inst        3056684                       # Total read bandwidth from this memory ((Byte/Second))
system.mem_ctrls.dram.bwRead::cpu.data       14056242                       # Total read bandwidth from this memory ((Byte/Second))
system.mem_ctrls.dram.bwRead::total          17112926                       # Total read bandwidth from this memory ((Byte/Second))
system.mem_ctrls.dram.bwInstRead::cpu.inst      3056684                       # Instruction read bandwidth from this memory ((Byte/Second))
system.mem_ctrls.dram.bwInstRead::total       3056684                       # Instruction read bandwidth from this memory ((Byte/Second))
system.mem_ctrls.dram.bwWrite::writebacks      9651353                       # Write bandwidth from this memory ((Byte/Second))
system.mem_ctrls.dram.bwWrite::total          9651353                       # Write bandwidth from this memory ((Byte/Second))
system.mem_ctrls.dram.bwTotal::writebacks      9651353                       # Total bandwidth to/from this memory ((Byte/Second))
system.mem_ctrls.dram.bwTotal::cpu.inst       3056684                       # Total bandwidth to/from this memory ((Byte/Second))
system.mem_ctrls.dram.bwTotal::cpu.data      14056242                       # Total bandwidth to/from this memory ((Byte/Second))
system.mem_ctrls.dram.bwTotal::total         26764279                       # Total bandwidth to/from this memory ((Byte/Second))
system.mem_ctrls.dram.readBursts                 5987                       # Number of DRAM read bursts (Count)
system.mem_ctrls.dram.writeBursts                3404                       # Number of DRAM write bursts (Count)
system.mem_ctrls.dram.perBankRdBursts::0          339                       # Per bank write bursts (Count)
system.mem_ctrls.dram.perBankRdBursts::1          342                       # Per bank write bursts (Count)
system.mem_ctrls.dram.perBankRdBursts::2          327                       # Per bank write bursts (Count)
system.mem_ctrls.dram.perBankRdBursts::3          211                       # Per bank write bursts (Count)
system.mem_ctrls.dram.perBankRdBursts::4          144                       # Per bank write bursts (Count)
system.mem_ctrls.dram.perBankRdBursts::5          162                       # Per bank write bursts (Count)
system.mem_ctrls.dram.perBankRdBursts::6          146                       # Per bank write bursts (Count)
system.mem_ctrls.dram.perBankRdBursts::7          126                       # Per bank write bursts (Count)
system.mem_ctrls.dram.perBankRdBursts::8          777                       # Per bank write bursts (Count)
system.mem_ctrls.dram.perBankRdBursts::9          744                       # Per bank write bursts (Count)
system.mem_ctrls.dram.perBankRdBursts::10          880                       # Per bank write bursts (Count)
system.mem_ctrls.dram.perBankRdBursts::11          721                       # Per bank write bursts (Count)
system.mem_ctrls.dram.perBankRdBursts::12          631                       # Per bank write bursts (Count)
system.mem_ctrls.dram.perBankRdBursts::13           98                       # Per bank write bursts (Count)
system.mem_ctrls.dram.perBankRdBursts::14          144                       # Per bank write bursts (Count)
system.mem_ctrls.dram.perBankRdBursts::15          195                       # Per bank write bursts (Count)
system.mem_ctrls.dram.perBankWrBursts::0           81                       # Per bank write bursts (Count)
system.mem_ctrls.dram.perBankWrBursts::1           69                       # Per bank write bursts (Count)
system.mem_ctrls.dram.perBankWrBursts::2          105                       # Per bank write bursts (Count)
system.mem_ctrls.dram.perBankWrBursts::3           88                       # Per bank write bursts (Count)
system.mem_ctrls.dram.perBankWrBursts::4            0                       # Per bank write bursts (Count)
system.mem_ctrls.dram.perBankWrBursts::5            0                       # Per bank write bursts (Count)
system.mem_ctrls.dram.perBankWrBursts::6            2                       # Per bank write bursts (Count)
system.mem_ctrls.dram.perBankWrBursts::7            0                       # Per bank write bursts (Count)
system.mem_ctrls.dram.perBankWrBursts::8          682                       # Per bank write bursts (Count)
system.mem_ctrls.dram.perBankWrBursts::9          677                       # Per bank write bursts (Count)
system.mem_ctrls.dram.perBankWrBursts::10          677                       # Per bank write bursts (Count)
system.mem_ctrls.dram.perBankWrBursts::11          477                       # Per bank write bursts (Count)
system.mem_ctrls.dram.perBankWrBursts::12          446                       # Per bank write bursts (Count)
system.mem_ctrls.dram.perBankWrBursts::13           43                       # Per bank write bursts (Count)
system.mem_ctrls.dram.perBankWrBursts::14            3                       # Per bank write bursts (Count)
system.mem_ctrls.dram.perBankWrBursts::15           54                       # Per bank write bursts (Count)
system.mem_ctrls.dram.totQLat                62718000                       # Total ticks spent queuing (Tick)
system.mem_ctrls.dram.totBusLat              29935000                       # Total ticks spent in databus transfers (Tick)
system.mem_ctrls.dram.totMemAccLat          174974250                       # Total ticks spent from burst creation until serviced by the DRAM (Tick)
system.mem_ctrls.dram.avgQLat                10475.70                       # Average queueing delay per DRAM burst ((Tick/Count))
system.mem_ctrls.dram.avgBusLat               5000.00                       # Average bus latency per DRAM burst ((Tick/Count))
system.mem_ctrls.dram.avgMemAccLat           29225.70                       # Average memory access latency per DRAM burst ((Tick/Count))
system.mem_ctrls.dram.readRowHits                5036                       # Number of row buffer hits during reads (Count)
system.mem_ctrls.dram.writeRowHits               3045                       # Number of row buffer hits during writes (Count)
system.mem_ctrls.dram.readRowHitRate            84.12                       # Row buffer hit rate for reads (Ratio)
system.mem_ctrls.dram.writeRowHitRate           89.45                       # Row buffer hit rate for writes (Ratio)
system.mem_ctrls.dram.bytesPerActivate::samples         1304                       # Bytes accessed per row activation (Byte)
system.mem_ctrls.dram.bytesPerActivate::mean   459.631902                       # Bytes accessed per row activation (Byte)
system.mem_ctrls.dram.bytesPerActivate::gmean   281.918461                       # Bytes accessed per row activation (Byte)
system.mem_ctrls.dram.bytesPerActivate::stdev   386.000115                       # Bytes accessed per row activation (Byte)
system.mem_ctrls.dram.bytesPerActivate::0-127          311     23.85%     23.85% # Bytes accessed per row activation (Byte)
system.mem_ctrls.dram.bytesPerActivate::128-255          251     19.25%     43.10% # Bytes accessed per row activation (Byte)
system.mem_ctrls.dram.bytesPerActivate::256-383          146     11.20%     54.29% # Bytes accessed per row activation (Byte)
system.mem_ctrls.dram.bytesPerActivate::384-511           72      5.52%     59.82% # Bytes accessed per row activation (Byte)
system.mem_ctrls.dram.bytesPerActivate::512-639           64      4.91%     64.72% # Bytes accessed per row activation (Byte)
system.mem_ctrls.dram.bytesPerActivate::640-767           49      3.76%     68.48% # Bytes accessed per row activation (Byte)
system.mem_ctrls.dram.bytesPerActivate::768-895           45      3.45%     71.93% # Bytes accessed per row activation (Byte)
system.mem_ctrls.dram.bytesPerActivate::896-1023          103      7.90%     79.83% # Bytes accessed per row activation (Byte)
system.mem_ctrls.dram.bytesPerActivate::1024-1151          263     20.17%    100.00% # Bytes accessed per row activation (Byte)
system.mem_ctrls.dram.bytesPerActivate::total         1304                       # Bytes accessed per row activation (Byte)
system.mem_ctrls.dram.bytesRead                383168                       # Total bytes read (Byte)
system.mem_ctrls.dram.bytesWritten             217856                       # Total bytes written (Byte)
system.mem_ctrls.dram.avgRdBW               16.851166                       # Average DRAM read bandwidth in MiBytes/s ((Byte/Second))
system.mem_ctrls.dram.avgWrBW                9.580987                       # Average DRAM write bandwidth in MiBytes/s ((Byte/Second))
system.mem_ctrls.dram.peakBW                 12800.00                       # Theoretical peak bandwidth in MiByte/s ((Byte/Second))
system.mem_ctrls.dram.busUtil                    0.21                       # Data bus utilization in percentage (Ratio)
system.mem_ctrls.dram.busUtilRead                0.13                       # Data bus utilization in percentage for reads (Ratio)
system.mem_ctrls.dram.busUtilWrite               0.07                       # Data bus utilization in percentage for writes (Ratio)
system.mem_ctrls.dram.pageHitRate               86.05                       # Row buffer hit rate, read and write combined (Ratio)
system.mem_ctrls.dram.power_state.pwrStateResidencyTicks::UNDEFINED  22738367000                       # Cumulative time (in ticks) in various power states (Tick)
system.mem_ctrls.dram.rank0.actEnergy         3262980                       # Energy for activate commands per rank (pJ) (Joule)
system.mem_ctrls.dram.rank0.preEnergy         1726725                       # Energy for precharge commands per rank (pJ) (Joule)
system.mem_ctrls.dram.rank0.readEnergy       12830580                       # Energy for read commands per rank (pJ) (Joule)
system.mem_ctrls.dram.rank0.writeEnergy       1800900                       # Energy for write commands per rank (pJ) (Joule)
system.mem_ctrls.dram.rank0.refreshEnergy 1794748800.000000                       # Energy for refresh commands per rank (pJ) (Joule)
system.mem_ctrls.dram.rank0.actBackEnergy    525502950                       # Energy for active background per rank (pJ) (Joule)
system.mem_ctrls.dram.rank0.preBackEnergy   8289004320                       # Energy for precharge background per rank (pJ) (Joule)
system.mem_ctrls.dram.rank0.actPowerDownEnergy            0                       # Energy for active power-down per rank (pJ) (Joule)
system.mem_ctrls.dram.rank0.prePowerDownEnergy            0                       # Energy for precharge power-down per rank (pJ) (Joule)
system.mem_ctrls.dram.rank0.selfRefreshEnergy            0                       # Energy for self refresh per rank (pJ) (Joule)
system.mem_ctrls.dram.rank0.totalEnergy   10628877255                       # Total energy per rank (pJ) (Joule)
system.mem_ctrls.dram.rank0.averagePower   467.442418                       # Core power per rank (mW) (Watt)
system.mem_ctrls.dram.rank0.totalIdleTime            0                       # Total Idle time Per DRAM Rank (Tick)
system.mem_ctrls.dram.rank0.pwrStateTime::IDLE  21544427000                       # Time in different power states (Tick)
system.mem_ctrls.dram.rank0.pwrStateTime::REF    759200000                       # Time in different power states (Tick)
system.mem_ctrls.dram.rank0.pwrStateTime::SREF            0                       # Time in different power states (Tick)
system.mem_ctrls.dram.rank0.pwrStateTime::PRE_PDN            0                       # Time in different power states (Tick)
system.mem_ctrls.dram.rank0.pwrStateTime::ACT    434740000                       # Time in different power states (Tick)
system.mem_ctrls.dram.rank0.pwrStateTime::ACT_PDN            0                       # Time in different power states (Tick)
system.mem_ctrls.dram.rank1.actEnergy         6090420                       # Energy for activate commands per rank (pJ) (Joule)
system.mem_ctrls.dram.rank1.preEnergy         3221955                       # Energy for precharge commands per rank (pJ) (Joule)
system.mem_ctrls.dram.rank1.readEnergy       29916600                       # Energy for read commands per rank (pJ) (Joule)
system.mem_ctrls.dram.rank1.writeEnergy      15967980                       # Energy for write commands per rank (pJ) (Joule)
system.mem_ctrls.dram.rank1.refreshEnergy 1794748800.000000                       # Energy for refresh commands per rank (pJ) (Joule)
system.mem_ctrls.dram.rank1.actBackEnergy    997077060                       # Energy for active background per rank (pJ) (Joule)
system.mem_ctrls.dram.rank1.preBackEnergy   7891889280                       # Energy for precharge background per rank (pJ) (Joule)
system.mem_ctrls.dram.rank1.actPowerDownEnergy            0                       # Energy for active power-down per rank (pJ) (Joule)
system.mem_ctrls.dram.rank1.prePowerDownEnergy            0                       # Energy for precharge power-down per rank (pJ) (Joule)
system.mem_ctrls.dram.rank1.selfRefreshEnergy            0                       # Energy for self refresh per rank (pJ) (Joule)
system.mem_ctrls.dram.rank1.totalEnergy   10738912095                       # Total energy per rank (pJ) (Joule)
system.mem_ctrls.dram.rank1.averagePower   472.281589                       # Core power per rank (mW) (Watt)
system.mem_ctrls.dram.rank1.totalIdleTime            0                       # Total Idle time Per DRAM Rank (Tick)
system.mem_ctrls.dram.rank1.pwrStateTime::IDLE  20508383250                       # Time in different power states (Tick)
system.mem_ctrls.dram.rank1.pwrStateTime::REF    759200000                       # Time in different power states (Tick)
system.mem_ctrls.dram.rank1.pwrStateTime::SREF            0                       # Time in different power states (Tick)
system.mem_ctrls.dram.rank1.pwrStateTime::PRE_PDN            0                       # Time in different power states (Tick)
system.mem_ctrls.dram.rank1.pwrStateTime::ACT   1470783750                       # Time in different power states (Tick)
system.mem_ctrls.dram.rank1.pwrStateTime::ACT_PDN            0                       # Time in different power states (Tick)
system.mem_ctrls.power_state.pwrStateResidencyTicks::UNDEFINED  22738367000                       # Cumulative time (in ticks) in various power states (Tick)
system.membus.transDist::ReadResp                4251                       # Transaction distribution (Count)
system.membus.transDist::WritebackDirty          3429                       # Transaction distribution (Count)
system.membus.transDist::CleanEvict              2133                       # Transaction distribution (Count)
system.membus.transDist::ReadExReq               1829                       # Transaction distribution (Count)
system.membus.transDist::ReadExResp              1829                       # Transaction distribution (Count)
system.membus.transDist::ReadSharedReq           4251                       # Transaction distribution (Count)
system.membus.pktCount_system.l2cache.mem_side_port::system.mem_ctrls.port        17722                       # Packet count per connected requestor and responder (Count)
system.membus.pktCount_system.l2cache.mem_side_port::total        17722                       # Packet count per connected requestor and responder (Count)
system.membus.pktCount::total                   17722                       # Packet count per connected requestor and responder (Count)
system.membus.pktSize_system.l2cache.mem_side_port::system.mem_ctrls.port       608576                       # Cumulative packet size per connected requestor and responder (Byte)
system.membus.pktSize_system.l2cache.mem_side_port::total       608576                       # Cumulative packet size per connected requestor and responder (Byte)
system.membus.pktSize::total                   608576                       # Cumulative packet size per connected requestor and responder (Byte)
system.membus.snoops                                0                       # Total snoops (Count)
system.membus.snoopTraffic                          0                       # Total snoop traffic (Byte)
system.membus.snoopFanout::samples               6080                       # Request fanout histogram (Count)
system.membus.snoopFanout::mean                     0                       # Request fanout histogram (Count)
system.membus.snoopFanout::stdev                    0                       # Request fanout histogram (Count)
system.membus.snoopFanout::underflows               0      0.00%      0.00% # Request fanout histogram (Count)
system.membus.snoopFanout::0                     6080    100.00%    100.00% # Request fanout histogram (Count)
system.membus.snoopFanout::1                        0      0.00%    100.00% # Request fanout histogram (Count)
system.membus.snoopFanout::overflows                0      0.00%    100.00% # Request fanout histogram (Count)
system.membus.snoopFanout::min_value                0                       # Request fanout histogram (Count)
system.membus.snoopFanout::max_value                0                       # Request fanout histogram (Count)
system.membus.snoopFanout::total                 6080                       # Request fanout histogram (Count)
system.membus.power_state.pwrStateResidencyTicks::UNDEFINED  22738367000                       # Cumulative time (in ticks) in various power states (Tick)
system.membus.reqLayer2.occupancy            12679000                       # Layer occupancy (ticks) (Tick)
system.membus.reqLayer2.utilization               0.0                       # Layer utilization (Ratio)
system.membus.respLayer1.occupancy           16520500                       # Layer occupancy (ticks) (Tick)
system.membus.respLayer1.utilization              0.0                       # Layer utilization (Ratio)
system.membus.snoop_filter.totRequests          11642                       # Total number of requests made to the snoop filter. (Count)
system.membus.snoop_filter.hitSingleRequests         5562                       # Number of requests hitting in the snoop filter with a single holder of the requested data. (Count)
system.membus.snoop_filter.hitMultiRequests            0                       # Number of requests hitting in the snoop filter with multiple (>1) holders of the requested data. (Count)
system.membus.snoop_filter.totSnoops                0                       # Total number of snoops made to the snoop filter. (Count)
system.membus.snoop_filter.hitSingleSnoops            0                       # Number of snoops hitting in the snoop filter with a single holder of the requested data. (Count)
system.membus.snoop_filter.hitMultiSnoops            0                       # Number of snoops hitting in the snoop filter with multiple (>1) holders of the requested data. (Count)
system.workload.inst.arm                            0                       # number of arm instructions executed (Count)
system.workload.inst.quiesce                        0                       # number of quiesce instructions executed (Count)

---------- End Simulation Statistics   ----------
