
---------- Begin Simulation Statistics ----------
simSeconds                                   0.020150                       # Number of seconds simulated (Second)
simTicks                                  20150356500                       # Number of ticks simulated (Tick)
finalTick                                 20150356500                       # Number of ticks from beginning of simulation (restored from checkpoints and never reset) (Tick)
simFreq                                  1000000000000                       # The number of ticks per simulated second ((Tick/Second))
hostSeconds                                    301.81                       # Real time elapsed on the host (Second)
hostTickRate                                 66764402                       # The number of ticks simulated per host second (ticks/s) ((Tick/Second))
hostMemory                                     801452                       # Number of bytes of host memory used (Byte)
simInsts                                     21343836                       # Number of instructions simulated (Count)
simOps                                       39396425                       # Number of ops (including micro ops) simulated (Count)
hostInstRate                                    70719                       # Simulator instruction rate (inst/s) ((Count/Second))
hostOpRate                                     130533                       # Simulator op (including micro ops) rate (op/s) ((Count/Second))
system.clk_domain.clock                           500                       # Clock period in ticks (Tick)
system.clk_domain.voltage_domain.voltage            1                       # Voltage in Volts (Volt)
system.cpu.numCycles                         40300714                       # Number of cpu cycles simulated (Cycle)
system.cpu.numWorkItemsStarted                      0                       # Number of work items this cpu started (Count)
system.cpu.numWorkItemsCompleted                    0                       # Number of work items this cpu completed (Count)
system.cpu.instsAdded                        52018161                       # Number of instructions added to the IQ (excludes non-spec) (Count)
system.cpu.nonSpecInstsAdded                    19381                       # Number of non-speculative instructions added to the IQ (Count)
system.cpu.instsIssued                       47995657                       # Number of instructions issued (Count)
system.cpu.squashedInstsIssued                  31264                       # Number of squashed instructions issued (Count)
system.cpu.squashedInstsExamined             12641111                       # Number of squashed instructions iterated over during squash; mainly for profiling (Count)
system.cpu.squashedOperandsExamined          21482551                       # Number of squashed operands that are examined and possibly removed from graph (Count)
system.cpu.squashedNonSpecRemoved               19363                       # Number of squashed non-spec instructions that were removed (Count)
system.cpu.numIssuedDist::samples            38162986                       # Number of insts issued each cycle (Count)
system.cpu.numIssuedDist::mean               1.257649                       # Number of insts issued each cycle (Count)
system.cpu.numIssuedDist::stdev              2.022789                       # Number of insts issued each cycle (Count)
system.cpu.numIssuedDist::underflows                0      0.00%      0.00% # Number of insts issued each cycle (Count)
system.cpu.numIssuedDist::0                  23772701     62.29%     62.29% # Number of insts issued each cycle (Count)
system.cpu.numIssuedDist::1                   3204783      8.40%     70.69% # Number of insts issued each cycle (Count)
system.cpu.numIssuedDist::2                   2757592      7.23%     77.92% # Number of insts issued each cycle (Count)
system.cpu.numIssuedDist::3                   2413711      6.32%     84.24% # Number of insts issued each cycle (Count)
system.cpu.numIssuedDist::4                   2093029      5.48%     89.73% # Number of insts issued each cycle (Count)
system.cpu.numIssuedDist::5                   1571705      4.12%     93.84% # Number of insts issued each cycle (Count)
system.cpu.numIssuedDist::6                   1141941      2.99%     96.84% # Number of insts issued each cycle (Count)
system.cpu.numIssuedDist::7                    707922      1.85%     98.69% # Number of insts issued each cycle (Count)
system.cpu.numIssuedDist::8                    499602      1.31%    100.00% # Number of insts issued each cycle (Count)
system.cpu.numIssuedDist::overflows                 0      0.00%    100.00% # Number of insts issued each cycle (Count)
system.cpu.numIssuedDist::min_value                 0                       # Number of insts issued each cycle (Count)
system.cpu.numIssuedDist::max_value                 8                       # Number of insts issued each cycle (Count)
system.cpu.numIssuedDist::total              38162986                       # Number of insts issued each cycle (Count)
system.cpu.statFuBusy::No_OpClass                   0      0.00%      0.00% # attempts to use FU when none available (Count)
system.cpu.statFuBusy::IntAlu                       0      0.00%      0.00% # attempts to use FU when none available (Count)
system.cpu.statFuBusy::IntMult                      0      0.00%      0.00% # attempts to use FU when none available (Count)
system.cpu.statFuBusy::IntDiv                       0      0.00%      0.00% # attempts to use FU when none available (Count)
system.cpu.statFuBusy::FloatAdd                     0      0.00%      0.00% # attempts to use FU when none available (Count)
system.cpu.statFuBusy::FloatCmp                     0      0.00%      0.00% # attempts to use FU when none available (Count)
system.cpu.statFuBusy::FloatCvt                     0      0.00%      0.00% # attempts to use FU when none available (Count)
system.cpu.statFuBusy::FloatMult                    0      0.00%      0.00% # attempts to use FU when none available (Count)
system.cpu.statFuBusy::FloatMultAcc                 0      0.00%      0.00% # attempts to use FU when none available (Count)
system.cpu.statFuBusy::FloatDiv                     0      0.00%      0.00% # attempts to use FU when none available (Count)
system.cpu.statFuBusy::FloatMisc                    0      0.00%      0.00% # attempts to use FU when none available (Count)
system.cpu.statFuBusy::FloatSqrt                    0      0.00%      0.00% # attempts to use FU when none available (Count)
system.cpu.statFuBusy::SimdAdd                      0      0.00%      0.00% # attempts to use FU when none available (Count)
system.cpu.statFuBusy::SimdAddAcc                   0      0.00%      0.00% # attempts to use FU when none available (Count)
system.cpu.statFuBusy::SimdAlu                      0      0.00%      0.00% # attempts to use FU when none available (Count)
system.cpu.statFuBusy::SimdCmp                      0      0.00%      0.00% # attempts to use FU when none available (Count)
system.cpu.statFuBusy::SimdCvt                      0      0.00%      0.00% # attempts to use FU when none available (Count)
system.cpu.statFuBusy::SimdMisc                     1      0.00%      0.00% # attempts to use FU when none available (Count)
system.cpu.statFuBusy::SimdMult                     0      0.00%      0.00% # attempts to use FU when none available (Count)
system.cpu.statFuBusy::SimdMultAcc                  0      0.00%      0.00% # attempts to use FU when none available (Count)
system.cpu.statFuBusy::SimdShift                    0      0.00%      0.00% # attempts to use FU when none available (Count)
system.cpu.statFuBusy::SimdShiftAcc                 0      0.00%      0.00% # attempts to use FU when none available (Count)
system.cpu.statFuBusy::SimdDiv                      0      0.00%      0.00% # attempts to use FU when none available (Count)
system.cpu.statFuBusy::SimdSqrt                     0      0.00%      0.00% # attempts to use FU when none available (Count)
system.cpu.statFuBusy::SimdFloatAdd                 0      0.00%      0.00% # attempts to use FU when none available (Count)
system.cpu.statFuBusy::SimdFloatAlu                 0      0.00%      0.00% # attempts to use FU when none available (Count)
system.cpu.statFuBusy::SimdFloatCmp                 0      0.00%      0.00% # attempts to use FU when none available (Count)
system.cpu.statFuBusy::SimdFloatCvt                 0      0.00%      0.00% # attempts to use FU when none available (Count)
system.cpu.statFuBusy::SimdFloatDiv                 0      0.00%      0.00% # attempts to use FU when none available (Count)
system.cpu.statFuBusy::SimdFloatMisc                0      0.00%      0.00% # attempts to use FU when none available (Count)
system.cpu.statFuBusy::SimdFloatMult                0      0.00%      0.00% # attempts to use FU when none available (Count)
system.cpu.statFuBusy::SimdFloatMultAcc             0      0.00%      0.00% # attempts to use FU when none available (Count)
system.cpu.statFuBusy::SimdFloatSqrt                0      0.00%      0.00% # attempts to use FU when none available (Count)
system.cpu.statFuBusy::SimdReduceAdd                0      0.00%      0.00% # attempts to use FU when none available (Count)
system.cpu.statFuBusy::SimdReduceAlu                0      0.00%      0.00% # attempts to use FU when none available (Count)
system.cpu.statFuBusy::SimdReduceCmp                0      0.00%      0.00% # attempts to use FU when none available (Count)
system.cpu.statFuBusy::SimdFloatReduceAdd            0      0.00%      0.00% # attempts to use FU when none available (Count)
system.cpu.statFuBusy::SimdFloatReduceCmp            0      0.00%      0.00% # attempts to use FU when none available (Count)
system.cpu.statFuBusy::SimdAes                      0      0.00%      0.00% # attempts to use FU when none available (Count)
system.cpu.statFuBusy::SimdAesMix                   0      0.00%      0.00% # attempts to use FU when none available (Count)
system.cpu.statFuBusy::SimdSha1Hash                 0      0.00%      0.00% # attempts to use FU when none available (Count)
system.cpu.statFuBusy::SimdSha1Hash2                0      0.00%      0.00% # attempts to use FU when none available (Count)
system.cpu.statFuBusy::SimdSha256Hash               0      0.00%      0.00% # attempts to use FU when none available (Count)
system.cpu.statFuBusy::SimdSha256Hash2              0      0.00%      0.00% # attempts to use FU when none available (Count)
system.cpu.statFuBusy::SimdShaSigma2                0      0.00%      0.00% # attempts to use FU when none available (Count)
system.cpu.statFuBusy::SimdShaSigma3                0      0.00%      0.00% # attempts to use FU when none available (Count)
system.cpu.statFuBusy::SimdPredAlu                  0      0.00%      0.00% # attempts to use FU when none available (Count)
system.cpu.statFuBusy::MemRead                 171540     76.11%     76.11% # attempts to use FU when none available (Count)
system.cpu.statFuBusy::MemWrite                 53799     23.87%     99.98% # attempts to use FU when none available (Count)
system.cpu.statFuBusy::FloatMemRead                16      0.01%     99.99% # attempts to use FU when none available (Count)
system.cpu.statFuBusy::FloatMemWrite               29      0.01%    100.00% # attempts to use FU when none available (Count)
system.cpu.statFuBusy::IprAccess                    0      0.00%    100.00% # attempts to use FU when none available (Count)
system.cpu.statFuBusy::InstPrefetch                 0      0.00%    100.00% # attempts to use FU when none available (Count)
system.cpu.statIssuedInstType_0::No_OpClass        54812      0.11%      0.11% # Number of instructions issued per FU type, per thread (Count)
system.cpu.statIssuedInstType_0::IntAlu      33624505     70.06%     70.17% # Number of instructions issued per FU type, per thread (Count)
system.cpu.statIssuedInstType_0::IntMult       128964      0.27%     70.44% # Number of instructions issued per FU type, per thread (Count)
system.cpu.statIssuedInstType_0::IntDiv        126943      0.26%     70.70% # Number of instructions issued per FU type, per thread (Count)
system.cpu.statIssuedInstType_0::FloatAdd        35442      0.07%     70.78% # Number of instructions issued per FU type, per thread (Count)
system.cpu.statIssuedInstType_0::FloatCmp            0      0.00%     70.78% # Number of instructions issued per FU type, per thread (Count)
system.cpu.statIssuedInstType_0::FloatCvt           32      0.00%     70.78% # Number of instructions issued per FU type, per thread (Count)
system.cpu.statIssuedInstType_0::FloatMult            0      0.00%     70.78% # Number of instructions issued per FU type, per thread (Count)
system.cpu.statIssuedInstType_0::FloatMultAcc            0      0.00%     70.78% # Number of instructions issued per FU type, per thread (Count)
system.cpu.statIssuedInstType_0::FloatDiv            0      0.00%     70.78% # Number of instructions issued per FU type, per thread (Count)
system.cpu.statIssuedInstType_0::FloatMisc            0      0.00%     70.78% # Number of instructions issued per FU type, per thread (Count)
system.cpu.statIssuedInstType_0::FloatSqrt            0      0.00%     70.78% # Number of instructions issued per FU type, per thread (Count)
system.cpu.statIssuedInstType_0::SimdAdd            0      0.00%     70.78% # Number of instructions issued per FU type, per thread (Count)
system.cpu.statIssuedInstType_0::SimdAddAcc            0      0.00%     70.78% # Number of instructions issued per FU type, per thread (Count)
system.cpu.statIssuedInstType_0::SimdAlu        70852      0.15%     70.93% # Number of instructions issued per FU type, per thread (Count)
system.cpu.statIssuedInstType_0::SimdCmp            0      0.00%     70.93% # Number of instructions issued per FU type, per thread (Count)
system.cpu.statIssuedInstType_0::SimdCvt       141765      0.30%     71.22% # Number of instructions issued per FU type, per thread (Count)
system.cpu.statIssuedInstType_0::SimdMisc       389746      0.81%     72.03% # Number of instructions issued per FU type, per thread (Count)
system.cpu.statIssuedInstType_0::SimdMult            0      0.00%     72.03% # Number of instructions issued per FU type, per thread (Count)
system.cpu.statIssuedInstType_0::SimdMultAcc            0      0.00%     72.03% # Number of instructions issued per FU type, per thread (Count)
system.cpu.statIssuedInstType_0::SimdShift            0      0.00%     72.03% # Number of instructions issued per FU type, per thread (Count)
system.cpu.statIssuedInstType_0::SimdShiftAcc            0      0.00%     72.03% # Number of instructions issued per FU type, per thread (Count)
system.cpu.statIssuedInstType_0::SimdDiv            0      0.00%     72.03% # Number of instructions issued per FU type, per thread (Count)
system.cpu.statIssuedInstType_0::SimdSqrt            0      0.00%     72.03% # Number of instructions issued per FU type, per thread (Count)
system.cpu.statIssuedInstType_0::SimdFloatAdd            0      0.00%     72.03% # Number of instructions issued per FU type, per thread (Count)
system.cpu.statIssuedInstType_0::SimdFloatAlu            0      0.00%     72.03% # Number of instructions issued per FU type, per thread (Count)
system.cpu.statIssuedInstType_0::SimdFloatCmp            0      0.00%     72.03% # Number of instructions issued per FU type, per thread (Count)
system.cpu.statIssuedInstType_0::SimdFloatCvt            0      0.00%     72.03% # Number of instructions issued per FU type, per thread (Count)
system.cpu.statIssuedInstType_0::SimdFloatDiv            0      0.00%     72.03% # Number of instructions issued per FU type, per thread (Count)
system.cpu.statIssuedInstType_0::SimdFloatMisc            0      0.00%     72.03% # Number of instructions issued per FU type, per thread (Count)
system.cpu.statIssuedInstType_0::SimdFloatMult            0      0.00%     72.03% # Number of instructions issued per FU type, per thread (Count)
system.cpu.statIssuedInstType_0::SimdFloatMultAcc            0      0.00%     72.03% # Number of instructions issued per FU type, per thread (Count)
system.cpu.statIssuedInstType_0::SimdFloatSqrt            0      0.00%     72.03% # Number of instructions issued per FU type, per thread (Count)
system.cpu.statIssuedInstType_0::SimdReduceAdd            0      0.00%     72.03% # Number of instructions issued per FU type, per thread (Count)
system.cpu.statIssuedInstType_0::SimdReduceAlu            0      0.00%     72.03% # Number of instructions issued per FU type, per thread (Count)
system.cpu.statIssuedInstType_0::SimdReduceCmp            0      0.00%     72.03% # Number of instructions issued per FU type, per thread (Count)
system.cpu.statIssuedInstType_0::SimdFloatReduceAdd            0      0.00%     72.03% # Number of instructions issued per FU type, per thread (Count)
system.cpu.statIssuedInstType_0::SimdFloatReduceCmp            0      0.00%     72.03% # Number of instructions issued per FU type, per thread (Count)
system.cpu.statIssuedInstType_0::SimdAes            0      0.00%     72.03% # Number of instructions issued per FU type, per thread (Count)
system.cpu.statIssuedInstType_0::SimdAesMix            0      0.00%     72.03% # Number of instructions issued per FU type, per thread (Count)
system.cpu.statIssuedInstType_0::SimdSha1Hash            0      0.00%     72.03% # Number of instructions issued per FU type, per thread (Count)
system.cpu.statIssuedInstType_0::SimdSha1Hash2            0      0.00%     72.03% # Number of instructions issued per FU type, per thread (Count)
system.cpu.statIssuedInstType_0::SimdSha256Hash            0      0.00%     72.03% # Number of instructions issued per FU type, per thread (Count)
system.cpu.statIssuedInstType_0::SimdSha256Hash2            0      0.00%     72.03% # Number of instructions issued per FU type, per thread (Count)
system.cpu.statIssuedInstType_0::SimdShaSigma2            0      0.00%     72.03% # Number of instructions issued per FU type, per thread (Count)
system.cpu.statIssuedInstType_0::SimdShaSigma3            0      0.00%     72.03% # Number of instructions issued per FU type, per thread (Count)
system.cpu.statIssuedInstType_0::SimdPredAlu            0      0.00%     72.03% # Number of instructions issued per FU type, per thread (Count)
system.cpu.statIssuedInstType_0::MemRead      9668476     20.14%     92.18% # Number of instructions issued per FU type, per thread (Count)
system.cpu.statIssuedInstType_0::MemWrite      3683054      7.67%     99.85% # Number of instructions issued per FU type, per thread (Count)
system.cpu.statIssuedInstType_0::FloatMemRead        70950      0.15%    100.00% # Number of instructions issued per FU type, per thread (Count)
system.cpu.statIssuedInstType_0::FloatMemWrite          116      0.00%    100.00% # Number of instructions issued per FU type, per thread (Count)
system.cpu.statIssuedInstType_0::IprAccess            0      0.00%    100.00% # Number of instructions issued per FU type, per thread (Count)
system.cpu.statIssuedInstType_0::InstPrefetch            0      0.00%    100.00% # Number of instructions issued per FU type, per thread (Count)
system.cpu.statIssuedInstType_0::total       47995657                       # Number of instructions issued per FU type, per thread (Count)
system.cpu.issueRate                         1.190938                       # Inst issue rate ((Count/Cycle))
system.cpu.fuBusy                              225385                       # FU busy when requested (Count)
system.cpu.fuBusyRate                        0.004696                       # FU busy rate (busy events/executed inst) ((Count/Count))
system.cpu.intInstQueueReads                132780479                       # Number of integer instruction queue reads (Count)
system.cpu.intInstQueueWrites                63863867                       # Number of integer instruction queue writes (Count)
system.cpu.intInstQueueWakeupAccesses        46170013                       # Number of integer instruction queue wakeup accesses (Count)
system.cpu.fpInstQueueReads                   1630470                       # Number of floating instruction queue reads (Count)
system.cpu.fpInstQueueWrites                   815491                       # Number of floating instruction queue writes (Count)
system.cpu.fpInstQueueWakeupAccesses           815198                       # Number of floating instruction queue wakeup accesses (Count)
system.cpu.vecInstQueueReads                        0                       # Number of vector instruction queue reads (Count)
system.cpu.vecInstQueueWrites                       0                       # Number of vector instruction queue writes (Count)
system.cpu.vecInstQueueWakeupAccesses               0                       # Number of vector instruction queue wakeup accesses (Count)
system.cpu.intAluAccesses                    47350972                       # Number of integer alu accesses (Count)
system.cpu.fpAluAccesses                       815258                       # Number of floating point alu accesses (Count)
system.cpu.vecAluAccesses                           0                       # Number of vector alu accesses (Count)
system.cpu.numInsts                          47437454                       # Number of executed instructions (Count)
system.cpu.numLoadInsts                       9491793                       # Number of load instructions executed (Count)
system.cpu.numSquashedInsts                    558203                       # Number of squashed instructions skipped in execute (Count)
system.cpu.numSwp                                   0                       # Number of swp insts executed (Count)
system.cpu.numNop                                   0                       # Number of nop insts executed (Count)
system.cpu.numRefs                           13089822                       # Number of memory reference insts executed (Count)
system.cpu.numBranches                        4294283                       # Number of branches executed (Count)
system.cpu.numStoreInsts                      3598029                       # Number of stores executed (Count)
system.cpu.numRate                           1.177087                       # Inst execution rate ((Count/Cycle))
system.cpu.timesIdled                          683376                       # Number of times that the entire CPU went into an idle state and unscheduled itself (Count)
system.cpu.idleCycles                         2137728                       # Total number of cycles that the CPU has spent unscheduled due to idling (Cycle)
system.cpu.committedInsts                    21343836                       # Number of Instructions Simulated (Count)
system.cpu.committedOps                      39396425                       # Number of Ops (including micro ops) Simulated (Count)
system.cpu.cpi                               1.888166                       # CPI: Cycles Per Instruction ((Cycle/Count))
system.cpu.totalCpi                          1.888166                       # CPI: Total CPI of All Threads ((Cycle/Count))
system.cpu.ipc                               0.529614                       # IPC: Instructions Per Cycle ((Count/Cycle))
system.cpu.totalIpc                          0.529614                       # IPC: Total IPC of All Threads ((Count/Cycle))
system.cpu.intRegfileReads                   58767006                       # Number of integer regfile reads (Count)
system.cpu.intRegfileWrites                  35867687                       # Number of integer regfile writes (Count)
system.cpu.fpRegfileReads                     1452906                       # Number of floating regfile reads (Count)
system.cpu.fpRegfileWrites                     673299                       # Number of floating regfile writes (Count)
system.cpu.ccRegfileReads                    20548355                       # number of cc regfile reads (Count)
system.cpu.ccRegfileWrites                   14408296                       # number of cc regfile writes (Count)
system.cpu.miscRegfileReads                  22259004                       # number of misc regfile reads (Count)
system.cpu.miscRegfileWrites                       18                       # number of misc regfile writes (Count)
system.cpu.MemDepUnit__0.insertedLoads       10730150                       # Number of loads inserted to the mem dependence unit. (Count)
system.cpu.MemDepUnit__0.insertedStores       4156448                       # Number of stores inserted to the mem dependence unit. (Count)
system.cpu.MemDepUnit__0.conflictingLoads      2330239                       # Number of conflicting loads. (Count)
system.cpu.MemDepUnit__0.conflictingStores       656828                       # Number of conflicting stores. (Count)
system.cpu.MemDepUnit__1.insertedLoads              0                       # Number of loads inserted to the mem dependence unit. (Count)
system.cpu.MemDepUnit__1.insertedStores             0                       # Number of stores inserted to the mem dependence unit. (Count)
system.cpu.MemDepUnit__1.conflictingLoads            0                       # Number of conflicting loads. (Count)
system.cpu.MemDepUnit__1.conflictingStores            0                       # Number of conflicting stores. (Count)
system.cpu.MemDepUnit__2.insertedLoads              0                       # Number of loads inserted to the mem dependence unit. (Count)
system.cpu.MemDepUnit__2.insertedStores             0                       # Number of stores inserted to the mem dependence unit. (Count)
system.cpu.MemDepUnit__2.conflictingLoads            0                       # Number of conflicting loads. (Count)
system.cpu.MemDepUnit__2.conflictingStores            0                       # Number of conflicting stores. (Count)
system.cpu.MemDepUnit__3.insertedLoads              0                       # Number of loads inserted to the mem dependence unit. (Count)
system.cpu.MemDepUnit__3.insertedStores             0                       # Number of stores inserted to the mem dependence unit. (Count)
system.cpu.MemDepUnit__3.conflictingLoads            0                       # Number of conflicting loads. (Count)
system.cpu.MemDepUnit__3.conflictingStores            0                       # Number of conflicting stores. (Count)
system.cpu.branchPred.lookups                 5142460                       # Number of BP lookups (Count)
system.cpu.branchPred.condPredicted           3877307                       # Number of conditional branches predicted (Count)
system.cpu.branchPred.condIncorrect            269409                       # Number of conditional branches incorrect (Count)
system.cpu.branchPred.BTBLookups              2806030                       # Number of BTB lookups (Count)
system.cpu.branchPred.BTBHits                 2725306                       # Number of BTB hits (Count)
system.cpu.branchPred.BTBHitRatio            0.971232                       # BTB Hit Ratio (Ratio)
system.cpu.branchPred.RASUsed                  342743                       # Number of times the RAS was used to get a target. (Count)
system.cpu.branchPred.RASIncorrect                685                       # Number of incorrect RAS predictions. (Count)
system.cpu.branchPred.indirectLookups          161038                       # Number of indirect predictor lookups. (Count)
system.cpu.branchPred.indirectHits             160298                       # Number of indirect target hits. (Count)
system.cpu.branchPred.indirectMisses              740                       # Number of indirect misses. (Count)
system.cpu.branchPred.indirectMispredicted          150                       # Number of mispredicted indirect branches. (Count)
system.cpu.commit.commitSquashedInsts        12062102                       # The number of squashed insts skipped by commit (Count)
system.cpu.commit.commitNonSpecStalls              18                       # The number of times commit has been forced to stall to communicate backwards (Count)
system.cpu.commit.branchMispredicts            208458                       # The number of times a branch was mispredicted (Count)
system.cpu.commit.numCommittedDist::samples     36505848                       # Number of insts commited each cycle (Count)
system.cpu.commit.numCommittedDist::mean     1.079181                       # Number of insts commited each cycle (Count)
system.cpu.commit.numCommittedDist::stdev     2.074706                       # Number of insts commited each cycle (Count)
system.cpu.commit.numCommittedDist::underflows            0      0.00%      0.00% # Number of insts commited each cycle (Count)
system.cpu.commit.numCommittedDist::0        24108140     66.04%     66.04% # Number of insts commited each cycle (Count)
system.cpu.commit.numCommittedDist::1         4277333     11.72%     77.76% # Number of insts commited each cycle (Count)
system.cpu.commit.numCommittedDist::2         2125613      5.82%     83.58% # Number of insts commited each cycle (Count)
system.cpu.commit.numCommittedDist::3         2473187      6.77%     90.35% # Number of insts commited each cycle (Count)
system.cpu.commit.numCommittedDist::4          528194      1.45%     91.80% # Number of insts commited each cycle (Count)
system.cpu.commit.numCommittedDist::5          492062      1.35%     93.15% # Number of insts commited each cycle (Count)
system.cpu.commit.numCommittedDist::6          403177      1.10%     94.25% # Number of insts commited each cycle (Count)
system.cpu.commit.numCommittedDist::7          328979      0.90%     95.15% # Number of insts commited each cycle (Count)
system.cpu.commit.numCommittedDist::8         1769163      4.85%    100.00% # Number of insts commited each cycle (Count)
system.cpu.commit.numCommittedDist::overflows            0      0.00%    100.00% # Number of insts commited each cycle (Count)
system.cpu.commit.numCommittedDist::min_value            0                       # Number of insts commited each cycle (Count)
system.cpu.commit.numCommittedDist::max_value            8                       # Number of insts commited each cycle (Count)
system.cpu.commit.numCommittedDist::total     36505848                       # Number of insts commited each cycle (Count)
system.cpu.commit.instsCommitted             21343836                       # Number of instructions committed (Count)
system.cpu.commit.opsCommitted               39396425                       # Number of ops (including micro ops) committed (Count)
system.cpu.commit.memRefs                     9984452                       # Number of memory references committed (Count)
system.cpu.commit.loads                       6778153                       # Number of loads committed (Count)
system.cpu.commit.amos                              0                       # Number of atomic instructions committed (Count)
system.cpu.commit.membars                           0                       # Number of memory barriers committed (Count)
system.cpu.commit.branches                    3853625                       # Number of branches committed (Count)
system.cpu.commit.vectorInstructions                0                       # Number of committed Vector instructions. (Count)
system.cpu.commit.floating                     814975                       # Number of committed floating point instructions. (Count)
system.cpu.commit.integer                    38702115                       # Number of committed integer instructions. (Count)
system.cpu.commit.functionCalls                304177                       # Number of function calls committed. (Count)
system.cpu.commit.committedInstType_0::No_OpClass        53708      0.14%      0.14% # Class of committed instruction (Count)
system.cpu.commit.committedInstType_0::IntAlu     28464930     72.25%     72.39% # Class of committed instruction (Count)
system.cpu.commit.committedInstType_0::IntMult       128911      0.33%     72.72% # Class of committed instruction (Count)
system.cpu.commit.committedInstType_0::IntDiv       126710      0.32%     73.04% # Class of committed instruction (Count)
system.cpu.commit.committedInstType_0::FloatAdd        35441      0.09%     73.13% # Class of committed instruction (Count)
system.cpu.commit.committedInstType_0::FloatCmp            0      0.00%     73.13% # Class of committed instruction (Count)
system.cpu.commit.committedInstType_0::FloatCvt           32      0.00%     73.13% # Class of committed instruction (Count)
system.cpu.commit.committedInstType_0::FloatMult            0      0.00%     73.13% # Class of committed instruction (Count)
system.cpu.commit.committedInstType_0::FloatMultAcc            0      0.00%     73.13% # Class of committed instruction (Count)
system.cpu.commit.committedInstType_0::FloatDiv            0      0.00%     73.13% # Class of committed instruction (Count)
system.cpu.commit.committedInstType_0::FloatMisc            0      0.00%     73.13% # Class of committed instruction (Count)
system.cpu.commit.committedInstType_0::FloatSqrt            0      0.00%     73.13% # Class of committed instruction (Count)
system.cpu.commit.committedInstType_0::SimdAdd            0      0.00%     73.13% # Class of committed instruction (Count)
system.cpu.commit.committedInstType_0::SimdAddAcc            0      0.00%     73.13% # Class of committed instruction (Count)
system.cpu.commit.committedInstType_0::SimdAlu        70850      0.18%     73.31% # Class of committed instruction (Count)
system.cpu.commit.committedInstType_0::SimdCmp            0      0.00%     73.31% # Class of committed instruction (Count)
system.cpu.commit.committedInstType_0::SimdCvt       141708      0.36%     73.67% # Class of committed instruction (Count)
system.cpu.commit.committedInstType_0::SimdMisc       389683      0.99%     74.66% # Class of committed instruction (Count)
system.cpu.commit.committedInstType_0::SimdMult            0      0.00%     74.66% # Class of committed instruction (Count)
system.cpu.commit.committedInstType_0::SimdMultAcc            0      0.00%     74.66% # Class of committed instruction (Count)
system.cpu.commit.committedInstType_0::SimdShift            0      0.00%     74.66% # Class of committed instruction (Count)
system.cpu.commit.committedInstType_0::SimdShiftAcc            0      0.00%     74.66% # Class of committed instruction (Count)
system.cpu.commit.committedInstType_0::SimdDiv            0      0.00%     74.66% # Class of committed instruction (Count)
system.cpu.commit.committedInstType_0::SimdSqrt            0      0.00%     74.66% # Class of committed instruction (Count)
system.cpu.commit.committedInstType_0::SimdFloatAdd            0      0.00%     74.66% # Class of committed instruction (Count)
system.cpu.commit.committedInstType_0::SimdFloatAlu            0      0.00%     74.66% # Class of committed instruction (Count)
system.cpu.commit.committedInstType_0::SimdFloatCmp            0      0.00%     74.66% # Class of committed instruction (Count)
system.cpu.commit.committedInstType_0::SimdFloatCvt            0      0.00%     74.66% # Class of committed instruction (Count)
system.cpu.commit.committedInstType_0::SimdFloatDiv            0      0.00%     74.66% # Class of committed instruction (Count)
system.cpu.commit.committedInstType_0::SimdFloatMisc            0      0.00%     74.66% # Class of committed instruction (Count)
system.cpu.commit.committedInstType_0::SimdFloatMult            0      0.00%     74.66% # Class of committed instruction (Count)
system.cpu.commit.committedInstType_0::SimdFloatMultAcc            0      0.00%     74.66% # Class of committed instruction (Count)
system.cpu.commit.committedInstType_0::SimdFloatSqrt            0      0.00%     74.66% # Class of committed instruction (Count)
system.cpu.commit.committedInstType_0::SimdReduceAdd            0      0.00%     74.66% # Class of committed instruction (Count)
system.cpu.commit.committedInstType_0::SimdReduceAlu            0      0.00%     74.66% # Class of committed instruction (Count)
system.cpu.commit.committedInstType_0::SimdReduceCmp            0      0.00%     74.66% # Class of committed instruction (Count)
system.cpu.commit.committedInstType_0::SimdFloatReduceAdd            0      0.00%     74.66% # Class of committed instruction (Count)
system.cpu.commit.committedInstType_0::SimdFloatReduceCmp            0      0.00%     74.66% # Class of committed instruction (Count)
system.cpu.commit.committedInstType_0::SimdAes            0      0.00%     74.66% # Class of committed instruction (Count)
system.cpu.commit.committedInstType_0::SimdAesMix            0      0.00%     74.66% # Class of committed instruction (Count)
system.cpu.commit.committedInstType_0::SimdSha1Hash            0      0.00%     74.66% # Class of committed instruction (Count)
system.cpu.commit.committedInstType_0::SimdSha1Hash2            0      0.00%     74.66% # Class of committed instruction (Count)
system.cpu.commit.committedInstType_0::SimdSha256Hash            0      0.00%     74.66% # Class of committed instruction (Count)
system.cpu.commit.committedInstType_0::SimdSha256Hash2            0      0.00%     74.66% # Class of committed instruction (Count)
system.cpu.commit.committedInstType_0::SimdShaSigma2            0      0.00%     74.66% # Class of committed instruction (Count)
system.cpu.commit.committedInstType_0::SimdShaSigma3            0      0.00%     74.66% # Class of committed instruction (Count)
system.cpu.commit.committedInstType_0::SimdPredAlu            0      0.00%     74.66% # Class of committed instruction (Count)
system.cpu.commit.committedInstType_0::MemRead      6707235     17.02%     91.68% # Class of committed instruction (Count)
system.cpu.commit.committedInstType_0::MemWrite      3206235      8.14%     99.82% # Class of committed instruction (Count)
system.cpu.commit.committedInstType_0::FloatMemRead        70918      0.18%    100.00% # Class of committed instruction (Count)
system.cpu.commit.committedInstType_0::FloatMemWrite           64      0.00%    100.00% # Class of committed instruction (Count)
system.cpu.commit.committedInstType_0::IprAccess            0      0.00%    100.00% # Class of committed instruction (Count)
system.cpu.commit.committedInstType_0::InstPrefetch            0      0.00%    100.00% # Class of committed instruction (Count)
system.cpu.commit.committedInstType_0::total     39396425                       # Class of committed instruction (Count)
system.cpu.commit.commitEligibleSamples       1769163                       # number cycles where commit BW limit reached (Cycle)
system.cpu.dcache.demandHits::cpu.data       10131276                       # number of demand (read+write) hits (Count)
system.cpu.dcache.demandHits::total          10131276                       # number of demand (read+write) hits (Count)
system.cpu.dcache.overallHits::cpu.data      10131276                       # number of overall hits (Count)
system.cpu.dcache.overallHits::total         10131276                       # number of overall hits (Count)
system.cpu.dcache.demandMisses::cpu.data       145121                       # number of demand (read+write) misses (Count)
system.cpu.dcache.demandMisses::total          145121                       # number of demand (read+write) misses (Count)
system.cpu.dcache.overallMisses::cpu.data       145121                       # number of overall misses (Count)
system.cpu.dcache.overallMisses::total         145121                       # number of overall misses (Count)
system.cpu.dcache.demandMissLatency::cpu.data   2903152958                       # number of demand (read+write) miss ticks (Tick)
system.cpu.dcache.demandMissLatency::total   2903152958                       # number of demand (read+write) miss ticks (Tick)
system.cpu.dcache.overallMissLatency::cpu.data   2903152958                       # number of overall miss ticks (Tick)
system.cpu.dcache.overallMissLatency::total   2903152958                       # number of overall miss ticks (Tick)
system.cpu.dcache.demandAccesses::cpu.data     10276397                       # number of demand (read+write) accesses (Count)
system.cpu.dcache.demandAccesses::total      10276397                       # number of demand (read+write) accesses (Count)
system.cpu.dcache.overallAccesses::cpu.data     10276397                       # number of overall (read+write) accesses (Count)
system.cpu.dcache.overallAccesses::total     10276397                       # number of overall (read+write) accesses (Count)
system.cpu.dcache.demandMissRate::cpu.data     0.014122                       # miss rate for demand accesses (Ratio)
system.cpu.dcache.demandMissRate::total      0.014122                       # miss rate for demand accesses (Ratio)
system.cpu.dcache.overallMissRate::cpu.data     0.014122                       # miss rate for overall accesses (Ratio)
system.cpu.dcache.overallMissRate::total     0.014122                       # miss rate for overall accesses (Ratio)
system.cpu.dcache.demandAvgMissLatency::cpu.data 20005.050668                       # average overall miss latency in ticks ((Tick/Count))
system.cpu.dcache.demandAvgMissLatency::total 20005.050668                       # average overall miss latency in ticks ((Tick/Count))
system.cpu.dcache.overallAvgMissLatency::cpu.data 20005.050668                       # average overall miss latency ((Tick/Count))
system.cpu.dcache.overallAvgMissLatency::total 20005.050668                       # average overall miss latency ((Tick/Count))
system.cpu.dcache.blockedCycles::no_mshrs        23774                       # number of cycles access was blocked (Cycle)
system.cpu.dcache.blockedCycles::no_targets          740                       # number of cycles access was blocked (Cycle)
system.cpu.dcache.blockedCauses::no_mshrs          758                       # number of times access was blocked (Count)
system.cpu.dcache.blockedCauses::no_targets           11                       # number of times access was blocked (Count)
system.cpu.dcache.avgBlocked::no_mshrs      31.364116                       # average number of cycles each access was blocked ((Cycle/Count))
system.cpu.dcache.avgBlocked::no_targets    67.272727                       # average number of cycles each access was blocked ((Cycle/Count))
system.cpu.dcache.writebacks::writebacks        39173                       # number of writebacks (Count)
system.cpu.dcache.writebacks::total             39173                       # number of writebacks (Count)
system.cpu.dcache.demandMshrHits::cpu.data        55253                       # number of demand (read+write) MSHR hits (Count)
system.cpu.dcache.demandMshrHits::total         55253                       # number of demand (read+write) MSHR hits (Count)
system.cpu.dcache.overallMshrHits::cpu.data        55253                       # number of overall MSHR hits (Count)
system.cpu.dcache.overallMshrHits::total        55253                       # number of overall MSHR hits (Count)
system.cpu.dcache.demandMshrMisses::cpu.data        89868                       # number of demand (read+write) MSHR misses (Count)
system.cpu.dcache.demandMshrMisses::total        89868                       # number of demand (read+write) MSHR misses (Count)
system.cpu.dcache.overallMshrMisses::cpu.data        89868                       # number of overall MSHR misses (Count)
system.cpu.dcache.overallMshrMisses::total        89868                       # number of overall MSHR misses (Count)
system.cpu.dcache.demandMshrMissLatency::cpu.data   1412210458                       # number of demand (read+write) MSHR miss ticks (Tick)
system.cpu.dcache.demandMshrMissLatency::total   1412210458                       # number of demand (read+write) MSHR miss ticks (Tick)
system.cpu.dcache.overallMshrMissLatency::cpu.data   1412210458                       # number of overall MSHR miss ticks (Tick)
system.cpu.dcache.overallMshrMissLatency::total   1412210458                       # number of overall MSHR miss ticks (Tick)
system.cpu.dcache.demandMshrMissRate::cpu.data     0.008745                       # mshr miss ratio for demand accesses (Ratio)
system.cpu.dcache.demandMshrMissRate::total     0.008745                       # mshr miss ratio for demand accesses (Ratio)
system.cpu.dcache.overallMshrMissRate::cpu.data     0.008745                       # mshr miss ratio for overall accesses (Ratio)
system.cpu.dcache.overallMshrMissRate::total     0.008745                       # mshr miss ratio for overall accesses (Ratio)
system.cpu.dcache.demandAvgMshrMissLatency::cpu.data 15714.274914                       # average overall mshr miss latency ((Tick/Count))
system.cpu.dcache.demandAvgMshrMissLatency::total 15714.274914                       # average overall mshr miss latency ((Tick/Count))
system.cpu.dcache.overallAvgMshrMissLatency::cpu.data 15714.274914                       # average overall mshr miss latency ((Tick/Count))
system.cpu.dcache.overallAvgMshrMissLatency::total 15714.274914                       # average overall mshr miss latency ((Tick/Count))
system.cpu.dcache.replacements                  89804                       # number of replacements (Count)
system.cpu.dcache.ReadReq.hits::cpu.data      6944434                       # number of ReadReq hits (Count)
system.cpu.dcache.ReadReq.hits::total         6944434                       # number of ReadReq hits (Count)
system.cpu.dcache.ReadReq.misses::cpu.data       125662                       # number of ReadReq misses (Count)
system.cpu.dcache.ReadReq.misses::total        125662                       # number of ReadReq misses (Count)
system.cpu.dcache.ReadReq.missLatency::cpu.data   2524635500                       # number of ReadReq miss ticks (Tick)
system.cpu.dcache.ReadReq.missLatency::total   2524635500                       # number of ReadReq miss ticks (Tick)
system.cpu.dcache.ReadReq.accesses::cpu.data      7070096                       # number of ReadReq accesses(hits+misses) (Count)
system.cpu.dcache.ReadReq.accesses::total      7070096                       # number of ReadReq accesses(hits+misses) (Count)
system.cpu.dcache.ReadReq.missRate::cpu.data     0.017774                       # miss rate for ReadReq accesses (Ratio)
system.cpu.dcache.ReadReq.missRate::total     0.017774                       # miss rate for ReadReq accesses (Ratio)
system.cpu.dcache.ReadReq.avgMissLatency::cpu.data 20090.683739                       # average ReadReq miss latency ((Tick/Count))
system.cpu.dcache.ReadReq.avgMissLatency::total 20090.683739                       # average ReadReq miss latency ((Tick/Count))
system.cpu.dcache.ReadReq.mshrHits::cpu.data        55210                       # number of ReadReq MSHR hits (Count)
system.cpu.dcache.ReadReq.mshrHits::total        55210                       # number of ReadReq MSHR hits (Count)
system.cpu.dcache.ReadReq.mshrMisses::cpu.data        70452                       # number of ReadReq MSHR misses (Count)
system.cpu.dcache.ReadReq.mshrMisses::total        70452                       # number of ReadReq MSHR misses (Count)
system.cpu.dcache.ReadReq.mshrMissLatency::cpu.data   1054557000                       # number of ReadReq MSHR miss ticks (Tick)
system.cpu.dcache.ReadReq.mshrMissLatency::total   1054557000                       # number of ReadReq MSHR miss ticks (Tick)
system.cpu.dcache.ReadReq.mshrMissRate::cpu.data     0.009965                       # mshr miss rate for ReadReq accesses (Ratio)
system.cpu.dcache.ReadReq.mshrMissRate::total     0.009965                       # mshr miss rate for ReadReq accesses (Ratio)
system.cpu.dcache.ReadReq.avgMshrMissLatency::cpu.data 14968.446602                       # average ReadReq mshr miss latency ((Tick/Count))
system.cpu.dcache.ReadReq.avgMshrMissLatency::total 14968.446602                       # average ReadReq mshr miss latency ((Tick/Count))
system.cpu.dcache.WriteReq.hits::cpu.data      3186842                       # number of WriteReq hits (Count)
system.cpu.dcache.WriteReq.hits::total        3186842                       # number of WriteReq hits (Count)
system.cpu.dcache.WriteReq.misses::cpu.data        19459                       # number of WriteReq misses (Count)
system.cpu.dcache.WriteReq.misses::total        19459                       # number of WriteReq misses (Count)
system.cpu.dcache.WriteReq.missLatency::cpu.data    378517458                       # number of WriteReq miss ticks (Tick)
system.cpu.dcache.WriteReq.missLatency::total    378517458                       # number of WriteReq miss ticks (Tick)
system.cpu.dcache.WriteReq.accesses::cpu.data      3206301                       # number of WriteReq accesses(hits+misses) (Count)
system.cpu.dcache.WriteReq.accesses::total      3206301                       # number of WriteReq accesses(hits+misses) (Count)
system.cpu.dcache.WriteReq.missRate::cpu.data     0.006069                       # miss rate for WriteReq accesses (Ratio)
system.cpu.dcache.WriteReq.missRate::total     0.006069                       # miss rate for WriteReq accesses (Ratio)
system.cpu.dcache.WriteReq.avgMissLatency::cpu.data 19452.050876                       # average WriteReq miss latency ((Tick/Count))
system.cpu.dcache.WriteReq.avgMissLatency::total 19452.050876                       # average WriteReq miss latency ((Tick/Count))
system.cpu.dcache.WriteReq.mshrHits::cpu.data           43                       # number of WriteReq MSHR hits (Count)
system.cpu.dcache.WriteReq.mshrHits::total           43                       # number of WriteReq MSHR hits (Count)
system.cpu.dcache.WriteReq.mshrMisses::cpu.data        19416                       # number of WriteReq MSHR misses (Count)
system.cpu.dcache.WriteReq.mshrMisses::total        19416                       # number of WriteReq MSHR misses (Count)
system.cpu.dcache.WriteReq.mshrMissLatency::cpu.data    357653458                       # number of WriteReq MSHR miss ticks (Tick)
system.cpu.dcache.WriteReq.mshrMissLatency::total    357653458                       # number of WriteReq MSHR miss ticks (Tick)
system.cpu.dcache.WriteReq.mshrMissRate::cpu.data     0.006056                       # mshr miss rate for WriteReq accesses (Ratio)
system.cpu.dcache.WriteReq.mshrMissRate::total     0.006056                       # mshr miss rate for WriteReq accesses (Ratio)
system.cpu.dcache.WriteReq.avgMshrMissLatency::cpu.data 18420.553049                       # average WriteReq mshr miss latency ((Tick/Count))
system.cpu.dcache.WriteReq.avgMshrMissLatency::total 18420.553049                       # average WriteReq mshr miss latency ((Tick/Count))
system.cpu.dcache.power_state.pwrStateResidencyTicks::UNDEFINED  20150356500                       # Cumulative time (in ticks) in various power states (Tick)
system.cpu.dcache.tags.tagsInUse            63.991049                       # Average ticks per tags in use ((Tick/Count))
system.cpu.dcache.tags.totalRefs             10221144                       # Total number of references to valid blocks. (Count)
system.cpu.dcache.tags.sampledRefs              89868                       # Sample count of references to valid blocks. (Count)
system.cpu.dcache.tags.avgRefs             113.735078                       # Average number of references to valid blocks. ((Count/Count))
system.cpu.dcache.tags.warmupTick            11385000                       # The tick when the warmup percentage was hit. (Tick)
system.cpu.dcache.tags.occupancies::cpu.data    63.991049                       # Average occupied blocks per tick, per requestor ((Count/Tick))
system.cpu.dcache.tags.avgOccs::cpu.data     0.999860                       # Average percentage of cache occupancy ((Ratio/Tick))
system.cpu.dcache.tags.avgOccs::total        0.999860                       # Average percentage of cache occupancy ((Ratio/Tick))
system.cpu.dcache.tags.occupanciesTaskId::1024           64                       # Occupied blocks per task id (Count)
system.cpu.dcache.tags.ageTaskId_1024::0           47                       # Occupied blocks per task id, per block age (Count)
system.cpu.dcache.tags.ageTaskId_1024::1            2                       # Occupied blocks per task id, per block age (Count)
system.cpu.dcache.tags.ageTaskId_1024::2           12                       # Occupied blocks per task id, per block age (Count)
system.cpu.dcache.tags.ageTaskId_1024::3            3                       # Occupied blocks per task id, per block age (Count)
system.cpu.dcache.tags.ratioOccsTaskId::1024            1                       # Ratio of occupied blocks and all blocks, per task id (Ratio)
system.cpu.dcache.tags.tagAccesses           20642662                       # Number of tag accesses (Count)
system.cpu.dcache.tags.dataAccesses          20642662                       # Number of data accesses (Count)
system.cpu.dcache.tags.power_state.pwrStateResidencyTicks::UNDEFINED  20150356500                       # Cumulative time (in ticks) in various power states (Tick)
system.cpu.decode.idleCycles                 27339922                       # Number of cycles decode is idle (Cycle)
system.cpu.decode.blockedCycles               2154843                       # Number of cycles decode is blocked (Cycle)
system.cpu.decode.runCycles                   7970906                       # Number of cycles decode is running (Cycle)
system.cpu.decode.unblockCycles                470388                       # Number of cycles decode is unblocking (Cycle)
system.cpu.decode.squashCycles                 226927                       # Number of cycles decode is squashing (Cycle)
system.cpu.decode.branchResolved              2664636                       # Number of times decode resolved a branch (Count)
system.cpu.decode.branchMispred                 61311                       # Number of times decode detected a branch misprediction (Count)
system.cpu.decode.decodedInsts               54221141                       # Number of instructions handled by decode (Count)
system.cpu.decode.squashedInsts                191860                       # Number of squashed instructions handled by decode (Count)
system.cpu.fetch.icacheStallCycles           27572674                       # Number of cycles fetch is stalled on an Icache miss (Cycle)
system.cpu.fetch.insts                       32152457                       # Number of instructions fetch has processed (Count)
system.cpu.fetch.branches                     5142460                       # Number of branches that fetch encountered (Count)
system.cpu.fetch.predictedBranches            3228347                       # Number of branches that fetch has predicted taken (Count)
system.cpu.fetch.cycles                      10299257                       # Number of cycles fetch has run and was not squashing or blocked (Cycle)
system.cpu.fetch.squashCycles                  576436                       # Number of cycles fetch has spent squashing (Cycle)
system.cpu.fetch.miscStallCycles                  362                       # Number of cycles fetch has spent waiting on interrupts, or bad addresses, or out of MSHRs (Cycle)
system.cpu.fetch.pendingTrapStallCycles          2437                       # Number of stall cycles due to pending traps (Cycle)
system.cpu.fetch.icacheWaitRetryStallCycles           38                       # Number of stall cycles due to full MSHR (Cycle)
system.cpu.fetch.cacheLines                   4268647                       # Number of cache lines fetched (Count)
system.cpu.fetch.icacheSquashes                141571                       # Number of outstanding Icache misses that were squashed (Count)
system.cpu.fetch.nisnDist::samples           38162986                       # Number of instructions fetched each cycle (Total) (Count)
system.cpu.fetch.nisnDist::mean              1.466257                       # Number of instructions fetched each cycle (Total) (Count)
system.cpu.fetch.nisnDist::stdev             2.875435                       # Number of instructions fetched each cycle (Total) (Count)
system.cpu.fetch.nisnDist::underflows               0      0.00%      0.00% # Number of instructions fetched each cycle (Total) (Count)
system.cpu.fetch.nisnDist::0                 29117510     76.30%     76.30% # Number of instructions fetched each cycle (Total) (Count)
system.cpu.fetch.nisnDist::1                   689884      1.81%     78.11% # Number of instructions fetched each cycle (Total) (Count)
system.cpu.fetch.nisnDist::2                   362416      0.95%     79.06% # Number of instructions fetched each cycle (Total) (Count)
system.cpu.fetch.nisnDist::3                   692662      1.82%     80.87% # Number of instructions fetched each cycle (Total) (Count)
system.cpu.fetch.nisnDist::4                   550923      1.44%     82.31% # Number of instructions fetched each cycle (Total) (Count)
system.cpu.fetch.nisnDist::5                   478616      1.25%     83.57% # Number of instructions fetched each cycle (Total) (Count)
system.cpu.fetch.nisnDist::6                   797643      2.09%     85.66% # Number of instructions fetched each cycle (Total) (Count)
system.cpu.fetch.nisnDist::7                   705249      1.85%     87.51% # Number of instructions fetched each cycle (Total) (Count)
system.cpu.fetch.nisnDist::8                  4768083     12.49%    100.00% # Number of instructions fetched each cycle (Total) (Count)
system.cpu.fetch.nisnDist::overflows                0      0.00%    100.00% # Number of instructions fetched each cycle (Total) (Count)
system.cpu.fetch.nisnDist::min_value                0                       # Number of instructions fetched each cycle (Total) (Count)
system.cpu.fetch.nisnDist::max_value                8                       # Number of instructions fetched each cycle (Total) (Count)
system.cpu.fetch.nisnDist::total             38162986                       # Number of instructions fetched each cycle (Total) (Count)
system.cpu.fetch.branchRate                  0.127602                       # Number of branch fetches per cycle (Ratio)
system.cpu.fetch.rate                        0.797814                       # Number of inst fetches per cycle ((Count/Cycle))
system.cpu.icache.demandHits::cpu.inst        3143679                       # number of demand (read+write) hits (Count)
system.cpu.icache.demandHits::total           3143679                       # number of demand (read+write) hits (Count)
system.cpu.icache.overallHits::cpu.inst       3143679                       # number of overall hits (Count)
system.cpu.icache.overallHits::total          3143679                       # number of overall hits (Count)
system.cpu.icache.demandMisses::cpu.inst      1124968                       # number of demand (read+write) misses (Count)
system.cpu.icache.demandMisses::total         1124968                       # number of demand (read+write) misses (Count)
system.cpu.icache.overallMisses::cpu.inst      1124968                       # number of overall misses (Count)
system.cpu.icache.overallMisses::total        1124968                       # number of overall misses (Count)
system.cpu.icache.demandMissLatency::cpu.inst  14522738500                       # number of demand (read+write) miss ticks (Tick)
system.cpu.icache.demandMissLatency::total  14522738500                       # number of demand (read+write) miss ticks (Tick)
system.cpu.icache.overallMissLatency::cpu.inst  14522738500                       # number of overall miss ticks (Tick)
system.cpu.icache.overallMissLatency::total  14522738500                       # number of overall miss ticks (Tick)
system.cpu.icache.demandAccesses::cpu.inst      4268647                       # number of demand (read+write) accesses (Count)
system.cpu.icache.demandAccesses::total       4268647                       # number of demand (read+write) accesses (Count)
system.cpu.icache.overallAccesses::cpu.inst      4268647                       # number of overall (read+write) accesses (Count)
system.cpu.icache.overallAccesses::total      4268647                       # number of overall (read+write) accesses (Count)
system.cpu.icache.demandMissRate::cpu.inst     0.263542                       # miss rate for demand accesses (Ratio)
system.cpu.icache.demandMissRate::total      0.263542                       # miss rate for demand accesses (Ratio)
system.cpu.icache.overallMissRate::cpu.inst     0.263542                       # miss rate for overall accesses (Ratio)
system.cpu.icache.overallMissRate::total     0.263542                       # miss rate for overall accesses (Ratio)
system.cpu.icache.demandAvgMissLatency::cpu.inst 12909.468092                       # average overall miss latency in ticks ((Tick/Count))
system.cpu.icache.demandAvgMissLatency::total 12909.468092                       # average overall miss latency in ticks ((Tick/Count))
system.cpu.icache.overallAvgMissLatency::cpu.inst 12909.468092                       # average overall miss latency ((Tick/Count))
system.cpu.icache.overallAvgMissLatency::total 12909.468092                       # average overall miss latency ((Tick/Count))
system.cpu.icache.blockedCycles::no_mshrs          983                       # number of cycles access was blocked (Cycle)
system.cpu.icache.blockedCycles::no_targets            0                       # number of cycles access was blocked (Cycle)
system.cpu.icache.blockedCauses::no_mshrs            7                       # number of times access was blocked (Count)
system.cpu.icache.blockedCauses::no_targets            0                       # number of times access was blocked (Count)
system.cpu.icache.avgBlocked::no_mshrs     140.428571                       # average number of cycles each access was blocked ((Cycle/Count))
system.cpu.icache.avgBlocked::no_targets          nan                       # average number of cycles each access was blocked ((Cycle/Count))
system.cpu.icache.demandMshrHits::cpu.inst        22084                       # number of demand (read+write) MSHR hits (Count)
system.cpu.icache.demandMshrHits::total         22084                       # number of demand (read+write) MSHR hits (Count)
system.cpu.icache.overallMshrHits::cpu.inst        22084                       # number of overall MSHR hits (Count)
system.cpu.icache.overallMshrHits::total        22084                       # number of overall MSHR hits (Count)
system.cpu.icache.demandMshrMisses::cpu.inst      1102884                       # number of demand (read+write) MSHR misses (Count)
system.cpu.icache.demandMshrMisses::total      1102884                       # number of demand (read+write) MSHR misses (Count)
system.cpu.icache.overallMshrMisses::cpu.inst      1102884                       # number of overall MSHR misses (Count)
system.cpu.icache.overallMshrMisses::total      1102884                       # number of overall MSHR misses (Count)
system.cpu.icache.demandMshrMissLatency::cpu.inst  13308548000                       # number of demand (read+write) MSHR miss ticks (Tick)
system.cpu.icache.demandMshrMissLatency::total  13308548000                       # number of demand (read+write) MSHR miss ticks (Tick)
system.cpu.icache.overallMshrMissLatency::cpu.inst  13308548000                       # number of overall MSHR miss ticks (Tick)
system.cpu.icache.overallMshrMissLatency::total  13308548000                       # number of overall MSHR miss ticks (Tick)
system.cpu.icache.demandMshrMissRate::cpu.inst     0.258369                       # mshr miss ratio for demand accesses (Ratio)
system.cpu.icache.demandMshrMissRate::total     0.258369                       # mshr miss ratio for demand accesses (Ratio)
system.cpu.icache.overallMshrMissRate::cpu.inst     0.258369                       # mshr miss ratio for overall accesses (Ratio)
system.cpu.icache.overallMshrMissRate::total     0.258369                       # mshr miss ratio for overall accesses (Ratio)
system.cpu.icache.demandAvgMshrMissLatency::cpu.inst 12067.042409                       # average overall mshr miss latency ((Tick/Count))
system.cpu.icache.demandAvgMshrMissLatency::total 12067.042409                       # average overall mshr miss latency ((Tick/Count))
system.cpu.icache.overallAvgMshrMissLatency::cpu.inst 12067.042409                       # average overall mshr miss latency ((Tick/Count))
system.cpu.icache.overallAvgMshrMissLatency::total 12067.042409                       # average overall mshr miss latency ((Tick/Count))
system.cpu.icache.replacements                1102819                       # number of replacements (Count)
system.cpu.icache.ReadReq.hits::cpu.inst      3143679                       # number of ReadReq hits (Count)
system.cpu.icache.ReadReq.hits::total         3143679                       # number of ReadReq hits (Count)
system.cpu.icache.ReadReq.misses::cpu.inst      1124968                       # number of ReadReq misses (Count)
system.cpu.icache.ReadReq.misses::total       1124968                       # number of ReadReq misses (Count)
system.cpu.icache.ReadReq.missLatency::cpu.inst  14522738500                       # number of ReadReq miss ticks (Tick)
system.cpu.icache.ReadReq.missLatency::total  14522738500                       # number of ReadReq miss ticks (Tick)
system.cpu.icache.ReadReq.accesses::cpu.inst      4268647                       # number of ReadReq accesses(hits+misses) (Count)
system.cpu.icache.ReadReq.accesses::total      4268647                       # number of ReadReq accesses(hits+misses) (Count)
system.cpu.icache.ReadReq.missRate::cpu.inst     0.263542                       # miss rate for ReadReq accesses (Ratio)
system.cpu.icache.ReadReq.missRate::total     0.263542                       # miss rate for ReadReq accesses (Ratio)
system.cpu.icache.ReadReq.avgMissLatency::cpu.inst 12909.468092                       # average ReadReq miss latency ((Tick/Count))
system.cpu.icache.ReadReq.avgMissLatency::total 12909.468092                       # average ReadReq miss latency ((Tick/Count))
system.cpu.icache.ReadReq.mshrHits::cpu.inst        22084                       # number of ReadReq MSHR hits (Count)
system.cpu.icache.ReadReq.mshrHits::total        22084                       # number of ReadReq MSHR hits (Count)
system.cpu.icache.ReadReq.mshrMisses::cpu.inst      1102884                       # number of ReadReq MSHR misses (Count)
system.cpu.icache.ReadReq.mshrMisses::total      1102884                       # number of ReadReq MSHR misses (Count)
system.cpu.icache.ReadReq.mshrMissLatency::cpu.inst  13308548000                       # number of ReadReq MSHR miss ticks (Tick)
system.cpu.icache.ReadReq.mshrMissLatency::total  13308548000                       # number of ReadReq MSHR miss ticks (Tick)
system.cpu.icache.ReadReq.mshrMissRate::cpu.inst     0.258369                       # mshr miss rate for ReadReq accesses (Ratio)
system.cpu.icache.ReadReq.mshrMissRate::total     0.258369                       # mshr miss rate for ReadReq accesses (Ratio)
system.cpu.icache.ReadReq.avgMshrMissLatency::cpu.inst 12067.042409                       # average ReadReq mshr miss latency ((Tick/Count))
system.cpu.icache.ReadReq.avgMshrMissLatency::total 12067.042409                       # average ReadReq mshr miss latency ((Tick/Count))
system.cpu.icache.power_state.pwrStateResidencyTicks::UNDEFINED  20150356500                       # Cumulative time (in ticks) in various power states (Tick)
system.cpu.icache.tags.tagsInUse            63.989285                       # Average ticks per tags in use ((Tick/Count))
system.cpu.icache.tags.totalRefs              4246562                       # Total number of references to valid blocks. (Count)
system.cpu.icache.tags.sampledRefs            1102883                       # Sample count of references to valid blocks. (Count)
system.cpu.icache.tags.avgRefs               3.850419                       # Average number of references to valid blocks. ((Count/Count))
system.cpu.icache.tags.warmupTick             7052500                       # The tick when the warmup percentage was hit. (Tick)
system.cpu.icache.tags.occupancies::cpu.inst    63.989285                       # Average occupied blocks per tick, per requestor ((Count/Tick))
system.cpu.icache.tags.avgOccs::cpu.inst     0.999833                       # Average percentage of cache occupancy ((Ratio/Tick))
system.cpu.icache.tags.avgOccs::total        0.999833                       # Average percentage of cache occupancy ((Ratio/Tick))
system.cpu.icache.tags.occupanciesTaskId::1024           64                       # Occupied blocks per task id (Count)
system.cpu.icache.tags.ageTaskId_1024::0           58                       # Occupied blocks per task id, per block age (Count)
system.cpu.icache.tags.ageTaskId_1024::3            1                       # Occupied blocks per task id, per block age (Count)
system.cpu.icache.tags.ageTaskId_1024::4            5                       # Occupied blocks per task id, per block age (Count)
system.cpu.icache.tags.ratioOccsTaskId::1024            1                       # Ratio of occupied blocks and all blocks, per task id (Ratio)
system.cpu.icache.tags.tagAccesses            9640177                       # Number of tag accesses (Count)
system.cpu.icache.tags.dataAccesses           9640177                       # Number of data accesses (Count)
system.cpu.icache.tags.power_state.pwrStateResidencyTicks::UNDEFINED  20150356500                       # Cumulative time (in ticks) in various power states (Tick)
system.cpu.iew.idleCycles                           0                       # Number of cycles IEW is idle (Cycle)
system.cpu.iew.squashCycles                    226927                       # Number of cycles IEW is squashing (Cycle)
system.cpu.iew.blockCycles                    1483284                       # Number of cycles IEW is blocking (Cycle)
system.cpu.iew.unblockCycles                     2814                       # Number of cycles IEW is unblocking (Cycle)
system.cpu.iew.dispatchedInsts               52037542                       # Number of instructions dispatched to IQ (Count)
system.cpu.iew.dispSquashedInsts                  655                       # Number of squashed instructions skipped by dispatch (Count)
system.cpu.iew.dispLoadInsts                 10730150                       # Number of dispatched load instructions (Count)
system.cpu.iew.dispStoreInsts                 4156448                       # Number of dispatched store instructions (Count)
system.cpu.iew.dispNonSpecInsts                  6473                       # Number of dispatched non-speculative instructions (Count)
system.cpu.iew.iqFullEvents                       958                       # Number of times the IQ has become full, causing a stall (Count)
system.cpu.iew.lsqFullEvents                     1334                       # Number of times the LSQ has become full, causing a stall (Count)
system.cpu.iew.memOrderViolationEvents            753                       # Number of memory order violations (Count)
system.cpu.iew.predictedTakenIncorrect         113932                       # Number of branches that were predicted taken incorrectly (Count)
system.cpu.iew.predictedNotTakenIncorrect       117119                       # Number of branches that were predicted not taken incorrectly (Count)
system.cpu.iew.branchMispredicts               231051                       # Number of branch mispredicts detected at execute (Count)
system.cpu.iew.instsToCommit                 47243804                       # Cumulative count of insts sent to commit (Count)
system.cpu.iew.writebackCount                46985211                       # Cumulative count of insts written-back (Count)
system.cpu.iew.producerInst                  35033053                       # Number of instructions producing a value (Count)
system.cpu.iew.consumerInst                  50406551                       # Number of instructions consuming a value (Count)
system.cpu.iew.wbRate                        1.165865                       # Insts written-back per cycle ((Count/Cycle))
system.cpu.iew.wbFanout                      0.695010                       # Average fanout of values written-back ((Count/Count))
system.cpu.interrupts.clk_domain.clock           8000                       # Clock period in ticks (Tick)
system.cpu.lsq0.forwLoads                     2417034                       # Number of loads that had data forwarded from stores (Count)
system.cpu.lsq0.squashedLoads                 3951997                       # Number of loads squashed (Count)
system.cpu.lsq0.ignoredResponses                 6689                       # Number of memory responses ignored because the instruction is squashed (Count)
system.cpu.lsq0.memOrderViolation                 753                       # Number of memory ordering violations (Count)
system.cpu.lsq0.squashedStores                 950149                       # Number of stores squashed (Count)
system.cpu.lsq0.rescheduledLoads                  456                       # Number of loads that were rescheduled (Count)
system.cpu.lsq0.blockedByCache                    656                       # Number of times an access to memory failed due to the cache being blocked (Count)
system.cpu.lsq0.loadToUse::samples            6778153                       # Distribution of cycle latency between the first time a load is issued and its completion (Unspecified)
system.cpu.lsq0.loadToUse::mean              3.520962                       # Distribution of cycle latency between the first time a load is issued and its completion (Unspecified)
system.cpu.lsq0.loadToUse::stdev             7.068909                       # Distribution of cycle latency between the first time a load is issued and its completion (Unspecified)
system.cpu.lsq0.loadToUse::0-9                6681410     98.57%     98.57% # Distribution of cycle latency between the first time a load is issued and its completion (Unspecified)
system.cpu.lsq0.loadToUse::10-19                 5304      0.08%     98.65% # Distribution of cycle latency between the first time a load is issued and its completion (Unspecified)
system.cpu.lsq0.loadToUse::20-29                77771      1.15%     99.80% # Distribution of cycle latency between the first time a load is issued and its completion (Unspecified)
system.cpu.lsq0.loadToUse::30-39                 1325      0.02%     99.82% # Distribution of cycle latency between the first time a load is issued and its completion (Unspecified)
system.cpu.lsq0.loadToUse::40-49                  294      0.00%     99.82% # Distribution of cycle latency between the first time a load is issued and its completion (Unspecified)
system.cpu.lsq0.loadToUse::50-59                  264      0.00%     99.83% # Distribution of cycle latency between the first time a load is issued and its completion (Unspecified)
system.cpu.lsq0.loadToUse::60-69                  276      0.00%     99.83% # Distribution of cycle latency between the first time a load is issued and its completion (Unspecified)
system.cpu.lsq0.loadToUse::70-79                  310      0.00%     99.83% # Distribution of cycle latency between the first time a load is issued and its completion (Unspecified)
system.cpu.lsq0.loadToUse::80-89                  308      0.00%     99.84% # Distribution of cycle latency between the first time a load is issued and its completion (Unspecified)
system.cpu.lsq0.loadToUse::90-99                  999      0.01%     99.85% # Distribution of cycle latency between the first time a load is issued and its completion (Unspecified)
system.cpu.lsq0.loadToUse::100-109                827      0.01%     99.87% # Distribution of cycle latency between the first time a load is issued and its completion (Unspecified)
system.cpu.lsq0.loadToUse::110-119               1198      0.02%     99.88% # Distribution of cycle latency between the first time a load is issued and its completion (Unspecified)
system.cpu.lsq0.loadToUse::120-129               1254      0.02%     99.90% # Distribution of cycle latency between the first time a load is issued and its completion (Unspecified)
system.cpu.lsq0.loadToUse::130-139               3775      0.06%     99.96% # Distribution of cycle latency between the first time a load is issued and its completion (Unspecified)
system.cpu.lsq0.loadToUse::140-149                439      0.01%     99.96% # Distribution of cycle latency between the first time a load is issued and its completion (Unspecified)
system.cpu.lsq0.loadToUse::150-159                293      0.00%     99.97% # Distribution of cycle latency between the first time a load is issued and its completion (Unspecified)
system.cpu.lsq0.loadToUse::160-169                444      0.01%     99.98% # Distribution of cycle latency between the first time a load is issued and its completion (Unspecified)
system.cpu.lsq0.loadToUse::170-179                168      0.00%     99.98% # Distribution of cycle latency between the first time a load is issued and its completion (Unspecified)
system.cpu.lsq0.loadToUse::180-189                151      0.00%     99.98% # Distribution of cycle latency between the first time a load is issued and its completion (Unspecified)
system.cpu.lsq0.loadToUse::190-199                327      0.00%     99.99% # Distribution of cycle latency between the first time a load is issued and its completion (Unspecified)
system.cpu.lsq0.loadToUse::200-209                136      0.00%     99.99% # Distribution of cycle latency between the first time a load is issued and its completion (Unspecified)
system.cpu.lsq0.loadToUse::210-219                 59      0.00%     99.99% # Distribution of cycle latency between the first time a load is issued and its completion (Unspecified)
system.cpu.lsq0.loadToUse::220-229                 63      0.00%     99.99% # Distribution of cycle latency between the first time a load is issued and its completion (Unspecified)
system.cpu.lsq0.loadToUse::230-239                101      0.00%     99.99% # Distribution of cycle latency between the first time a load is issued and its completion (Unspecified)
system.cpu.lsq0.loadToUse::240-249                 98      0.00%     99.99% # Distribution of cycle latency between the first time a load is issued and its completion (Unspecified)
system.cpu.lsq0.loadToUse::250-259                 56      0.00%     99.99% # Distribution of cycle latency between the first time a load is issued and its completion (Unspecified)
system.cpu.lsq0.loadToUse::260-269                 58      0.00%     99.99% # Distribution of cycle latency between the first time a load is issued and its completion (Unspecified)
system.cpu.lsq0.loadToUse::270-279                 55      0.00%     99.99% # Distribution of cycle latency between the first time a load is issued and its completion (Unspecified)
system.cpu.lsq0.loadToUse::280-289                 44      0.00%     99.99% # Distribution of cycle latency between the first time a load is issued and its completion (Unspecified)
system.cpu.lsq0.loadToUse::290-299                 25      0.00%    100.00% # Distribution of cycle latency between the first time a load is issued and its completion (Unspecified)
system.cpu.lsq0.loadToUse::overflows              321      0.00%    100.00% # Distribution of cycle latency between the first time a load is issued and its completion (Unspecified)
system.cpu.lsq0.loadToUse::min_value                2                       # Distribution of cycle latency between the first time a load is issued and its completion (Unspecified)
[...]
system.mem_ctrls.dram.numReads::cpu.inst         1108                       # Number of read requests responded to by this memory (Count)
system.mem_ctrls.dram.numReads::cpu.data         5067                       # Number of read requests responded to by this memory (Count)
system.mem_ctrls.dram.numReads::total            6175                       # Number of read requests responded to by this memory (Count)
system.mem_ctrls.dram.numWrites::writebacks         3444                       # Number of write requests responded to by this memory (Count)
system.mem_ctrls.dram.numWrites::total           3444                       # Number of write requests responded to by this memory (Count)
system.mem_ctrls.dram.bwRead::cpu.inst        3519144                       # Total read bandwidth from this memory ((Byte/Second))
system.mem_ctrls.dram.bwRead::cpu.data       16093413                       # Total read bandwidth from this memory ((Byte/Second))
system.mem_ctrls.dram.bwRead::total          19612556                       # Total read bandwidth from this memory ((Byte/Second))
system.mem_ctrls.dram.bwInstRead::cpu.inst      3519144                       # Instruction read bandwidth from this memory ((Byte/Second))
system.mem_ctrls.dram.bwInstRead::total       3519144                       # Instruction read bandwidth from this memory ((Byte/Second))
system.mem_ctrls.dram.bwWrite::writebacks     10938566                       # Write bandwidth from this memory ((Byte/Second))
system.mem_ctrls.dram.bwWrite::total         10938566                       # Write bandwidth from this memory ((Byte/Second))
system.mem_ctrls.dram.bwTotal::writebacks     10938566                       # Total bandwidth to/from this memory ((Byte/Second))
system.mem_ctrls.dram.bwTotal::cpu.inst       3519144                       # Total bandwidth to/from this memory ((Byte/Second))
system.mem_ctrls.dram.bwTotal::cpu.data      16093413                       # Total bandwidth to/from this memory ((Byte/Second))
system.mem_ctrls.dram.bwTotal::total         30551122                       # Total bandwidth to/from this memory ((Byte/Second))
system.mem_ctrls.dram.readBursts                 6082                       # Number of DRAM read bursts (Count)
system.mem_ctrls.dram.writeBursts                3419                       # Number of DRAM write bursts (Count)
system.mem_ctrls.dram.perBankRdBursts::0          346                       # Per bank write bursts (Count)
system.mem_ctrls.dram.perBankRdBursts::1          342                       # Per bank write bursts (Count)
system.mem_ctrls.dram.perBankRdBursts::2          331                       # Per bank write bursts (Count)
system.mem_ctrls.dram.perBankRdBursts::3          217                       # Per bank write bursts (Count)
system.mem_ctrls.dram.perBankRdBursts::4          151                       # Per bank write bursts (Count)
system.mem_ctrls.dram.perBankRdBursts::5          173                       # Per bank write bursts (Count)
system.mem_ctrls.dram.perBankRdBursts::6          154                       # Per bank write bursts (Count)
system.mem_ctrls.dram.perBankRdBursts::7          139                       # Per bank write bursts (Count)
system.mem_ctrls.dram.perBankRdBursts::8          779                       # Per bank write bursts (Count)
system.mem_ctrls.dram.perBankRdBursts::9          753                       # Per bank write bursts (Count)
system.mem_ctrls.dram.perBankRdBursts::10          894                       # Per bank write bursts (Count)
system.mem_ctrls.dram.perBankRdBursts::11          724                       # Per bank write bursts (Count)
system.mem_ctrls.dram.perBankRdBursts::12          634                       # Per bank write bursts (Count)
system.mem_ctrls.dram.perBankRdBursts::13          102                       # Per bank write bursts (Count)
system.mem_ctrls.dram.perBankRdBursts::14          144                       # Per bank write bursts (Count)
system.mem_ctrls.dram.perBankRdBursts::15          199                       # Per bank write bursts (Count)
system.mem_ctrls.dram.perBankWrBursts::0           80                       # Per bank write bursts (Count)
system.mem_ctrls.dram.perBankWrBursts::1           67                       # Per bank write bursts (Count)
system.mem_ctrls.dram.perBankWrBursts::2          102                       # Per bank write bursts (Count)
system.mem_ctrls.dram.perBankWrBursts::3           88                       # Per bank write bursts (Count)
system.mem_ctrls.dram.perBankWrBursts::4            0                       # Per bank write bursts (Count)
system.mem_ctrls.dram.perBankWrBursts::5            0                       # Per bank write bursts (Count)
system.mem_ctrls.dram.perBankWrBursts::6            2                       # Per bank write bursts (Count)
system.mem_ctrls.dram.perBankWrBursts::7            0                       # Per bank write bursts (Count)
system.mem_ctrls.dram.perBankWrBursts::8          682                       # Per bank write bursts (Count)
system.mem_ctrls.dram.perBankWrBursts::9          684                       # Per bank write bursts (Count)
system.mem_ctrls.dram.perBankWrBursts::10          689                       # Per bank write bursts (Count)
system.mem_ctrls.dram.perBankWrBursts::11          482                       # Per bank write bursts (Count)
system.mem_ctrls.dram.perBankWrBursts::12          443                       # Per bank write bursts (Count)
system.mem_ctrls.dram.perBankWrBursts::13           43                       # Per bank write bursts (Count)
system.mem_ctrls.dram.perBankWrBursts::14            3                       # Per bank write bursts (Count)
system.mem_ctrls.dram.perBankWrBursts::15           54                       # Per bank write bursts (Count)
system.mem_ctrls.dram.totQLat                61143250                       # Total ticks spent queuing (Tick)
system.mem_ctrls.dram.totBusLat              30410000                       # Total ticks spent in databus transfers (Tick)
system.mem_ctrls.dram.totMemAccLat          175180750                       # Total ticks spent from burst creation until serviced by the DRAM (Tick)
system.mem_ctrls.dram.avgQLat                10053.15                       # Average queueing delay per DRAM burst ((Tick/Count))
system.mem_ctrls.dram.avgBusLat               5000.00                       # Average bus latency per DRAM burst ((Tick/Count))
system.mem_ctrls.dram.avgMemAccLat           28803.15                       # Average memory access latency per DRAM burst ((Tick/Count))
system.mem_ctrls.dram.readRowHits                5139                       # Number of row buffer hits during reads (Count)
system.mem_ctrls.dram.writeRowHits               3086                       # Number of row buffer hits during writes (Count)
system.mem_ctrls.dram.readRowHitRate            84.50                       # Row buffer hit rate for reads (Ratio)
system.mem_ctrls.dram.writeRowHitRate           90.26                       # Row buffer hit rate for writes (Ratio)
system.mem_ctrls.dram.bytesPerActivate::samples         1262                       # Bytes accessed per row activation (Byte)
system.mem_ctrls.dram.bytesPerActivate::mean   478.478605                       # Bytes accessed per row activation (Byte)
system.mem_ctrls.dram.bytesPerActivate::gmean   292.115785                       # Bytes accessed per row activation (Byte)
system.mem_ctrls.dram.bytesPerActivate::stdev   394.229228                       # Bytes accessed per row activation (Byte)
system.mem_ctrls.dram.bytesPerActivate::0-127          307     24.33%     24.33% # Bytes accessed per row activation (Byte)
system.mem_ctrls.dram.bytesPerActivate::128-255          226     17.91%     42.23% # Bytes accessed per row activation (Byte)
system.mem_ctrls.dram.bytesPerActivate::256-383          106      8.40%     50.63% # Bytes accessed per row activation (Byte)
system.mem_ctrls.dram.bytesPerActivate::384-511           89      7.05%     57.69% # Bytes accessed per row activation (Byte)
system.mem_ctrls.dram.bytesPerActivate::512-639           69      5.47%     63.15% # Bytes accessed per row activation (Byte)
system.mem_ctrls.dram.bytesPerActivate::640-767           56      4.44%     67.59% # Bytes accessed per row activation (Byte)
system.mem_ctrls.dram.bytesPerActivate::768-895           35      2.77%     70.36% # Bytes accessed per row activation (Byte)
system.mem_ctrls.dram.bytesPerActivate::896-1023           28      2.22%     72.58% # Bytes accessed per row activation (Byte)
system.mem_ctrls.dram.bytesPerActivate::1024-1151          346     27.42%    100.00% # Bytes accessed per row activation (Byte)
system.mem_ctrls.dram.bytesPerActivate::total         1262                       # Bytes accessed per row activation (Byte)
system.mem_ctrls.dram.bytesRead                389248                       # Total bytes read (Byte)
system.mem_ctrls.dram.bytesWritten             218816                       # Total bytes written (Byte)
system.mem_ctrls.dram.avgRdBW               19.317177                       # Average DRAM read bandwidth in MiBytes/s ((Byte/Second))
system.mem_ctrls.dram.avgWrBW               10.859163                       # Average DRAM write bandwidth in MiBytes/s ((Byte/Second))
system.mem_ctrls.dram.peakBW                 12800.00                       # Theoretical peak bandwidth in MiByte/s ((Byte/Second))
system.mem_ctrls.dram.busUtil                    0.24                       # Data bus utilization in percentage (Ratio)
system.mem_ctrls.dram.busUtilRead                0.15                       # Data bus utilization in percentage for reads (Ratio)
system.mem_ctrls.dram.busUtilWrite               0.08                       # Data bus utilization in percentage for writes (Ratio)
system.mem_ctrls.dram.pageHitRate               86.57                       # Row buffer hit rate, read and write combined (Ratio)
system.mem_ctrls.dram.power_state.pwrStateResidencyTicks::UNDEFINED  20150356500                       # Cumulative time (in ticks) in various power states (Tick)
system.mem_ctrls.dram.rank0.actEnergy         3220140                       # Energy for activate commands per rank (pJ) (Joule)
system.mem_ctrls.dram.rank0.preEnergy         1684980                       # Energy for precharge commands per rank (pJ) (Joule)
system.mem_ctrls.dram.rank0.readEnergy       13230420                       # Energy for read commands per rank (pJ) (Joule)
system.mem_ctrls.dram.rank0.writeEnergy       1769580                       # Energy for write commands per rank (pJ) (Joule)
system.mem_ctrls.dram.rank0.refreshEnergy 1590073680.000000                       # Energy for refresh commands per rank (pJ) (Joule)
system.mem_ctrls.dram.rank0.actBackEnergy    462256890                       # Energy for active background per rank (pJ) (Joule)
system.mem_ctrls.dram.rank0.preBackEnergy   7348468320                       # Energy for precharge background per rank (pJ) (Joule)
system.mem_ctrls.dram.rank0.actPowerDownEnergy            0                       # Energy for active power-down per rank (pJ) (Joule)
system.mem_ctrls.dram.rank0.prePowerDownEnergy            0                       # Energy for precharge power-down per rank (pJ) (Joule)
system.mem_ctrls.dram.rank0.selfRefreshEnergy            0                       # Energy for self refresh per rank (pJ) (Joule)
system.mem_ctrls.dram.rank0.totalEnergy    9420704010                       # Total energy per rank (pJ) (Joule)
system.mem_ctrls.dram.rank0.averagePower   467.520463                       # Core power per rank (mW) (Watt)
system.mem_ctrls.dram.rank0.totalIdleTime            0                       # Total Idle time Per DRAM Rank (Tick)
system.mem_ctrls.dram.rank0.pwrStateTime::IDLE  19099977000                       # Time in different power states (Tick)
system.mem_ctrls.dram.rank0.pwrStateTime::REF    672620000                       # Time in different power states (Tick)
system.mem_ctrls.dram.rank0.pwrStateTime::SREF            0                       # Time in different power states (Tick)
system.mem_ctrls.dram.rank0.pwrStateTime::PRE_PDN            0                       # Time in different power states (Tick)
system.mem_ctrls.dram.rank0.pwrStateTime::ACT    377759500                       # Time in different power states (Tick)
system.mem_ctrls.dram.rank0.pwrStateTime::ACT_PDN            0                       # Time in different power states (Tick)
system.mem_ctrls.dram.rank1.actEnergy         5890500                       # Energy for activate commands per rank (pJ) (Joule)
system.mem_ctrls.dram.rank1.preEnergy         3104310                       # Energy for precharge commands per rank (pJ) (Joule)
system.mem_ctrls.dram.rank1.readEnergy       30195060                       # Energy for read commands per rank (pJ) (Joule)
system.mem_ctrls.dram.rank1.writeEnergy      16077600                       # Energy for write commands per rank (pJ) (Joule)
system.mem_ctrls.dram.rank1.refreshEnergy 1590073680.000000                       # Energy for refresh commands per rank (pJ) (Joule)
system.mem_ctrls.dram.rank1.actBackEnergy    717610050                       # Energy for active background per rank (pJ) (Joule)
system.mem_ctrls.dram.rank1.preBackEnergy   7133434080                       # Energy for precharge background per rank (pJ) (Joule)
system.mem_ctrls.dram.rank1.actPowerDownEnergy            0                       # Energy for active power-down per rank (pJ) (Joule)
system.mem_ctrls.dram.rank1.prePowerDownEnergy            0                       # Energy for precharge power-down per rank (pJ) (Joule)
system.mem_ctrls.dram.rank1.selfRefreshEnergy            0                       # Energy for self refresh per rank (pJ) (Joule)
system.mem_ctrls.dram.rank1.totalEnergy    9496385280                       # Total energy per rank (pJ) (Joule)
system.mem_ctrls.dram.rank1.averagePower   471.276291                       # Core power per rank (mW) (Watt)
system.mem_ctrls.dram.rank1.totalIdleTime            0                       # Total Idle time Per DRAM Rank (Tick)
system.mem_ctrls.dram.rank1.pwrStateTime::IDLE  18538609000                       # Time in different power states (Tick)
system.mem_ctrls.dram.rank1.pwrStateTime::REF    672620000                       # Time in different power states (Tick)
system.mem_ctrls.dram.rank1.pwrStateTime::SREF            0                       # Time in different power states (Tick)
system.mem_ctrls.dram.rank1.pwrStateTime::PRE_PDN            0                       # Time in different power states (Tick)
system.mem_ctrls.dram.rank1.pwrStateTime::ACT    939127500                       # Time in different power states (Tick)
system.mem_ctrls.dram.rank1.pwrStateTime::ACT_PDN            0                       # Time in different power states (Tick)
system.mem_ctrls.power_state.pwrStateResidencyTicks::UNDEFINED  20150356500                       # Cumulative time (in ticks) in various power states (Tick)
system.membus.transDist::ReadResp                4372                       # Transaction distribution (Count)
system.membus.transDist::WritebackDirty          3444                       # Transaction distribution (Count)
system.membus.transDist::CleanEvict              2213                       # Transaction distribution (Count)
system.membus.transDist::ReadExReq               1803                       # Transaction distribution (Count)
system.membus.transDist::ReadExResp              1803                       # Transaction distribution (Count)
system.membus.transDist::ReadSharedReq           4372                       # Transaction distribution (Count)
system.membus.pktCount_system.l2cache.mem_side_port::system.mem_ctrls.port        18007                       # Packet count per connected requestor and responder (Count)
system.membus.pktCount_system.l2cache.mem_side_port::total        18007                       # Packet count per connected requestor and responder (Count)
system.membus.pktCount::total                   18007                       # Packet count per connected requestor and responder (Count)
system.membus.pktSize_system.l2cache.mem_side_port::system.mem_ctrls.port       615616                       # Cumulative packet size per connected requestor and responder (Byte)
system.membus.pktSize_system.l2cache.mem_side_port::total       615616                       # Cumulative packet size per connected requestor and responder (Byte)
system.membus.pktSize::total                   615616                       # Cumulative packet size per connected requestor and responder (Byte)
system.membus.snoops                                0                       # Total snoops (Count)
system.membus.snoopTraffic                          0                       # Total snoop traffic (Byte)
system.membus.snoopFanout::samples               6175                       # Request fanout histogram (Count)
system.membus.snoopFanout::mean                     0                       # Request fanout histogram (Count)
system.membus.snoopFanout::stdev                    0                       # Request fanout histogram (Count)
system.membus.snoopFanout::underflows               0      0.00%      0.00% # Request fanout histogram (Count)
system.membus.snoopFanout::0                     6175    100.00%    100.00% # Request fanout histogram (Count)
system.membus.snoopFanout::1                        0      0.00%    100.00% # Request fanout histogram (Count)
system.membus.snoopFanout::overflows                0      0.00%    100.00% # Request fanout histogram (Count)
system.membus.snoopFanout::min_value                0                       # Request fanout histogram (Count)
system.membus.snoopFanout::max_value                0                       # Request fanout histogram (Count)
system.membus.snoopFanout::total                 6175                       # Request fanout histogram (Count)
system.membus.power_state.pwrStateResidencyTicks::UNDEFINED  20150356500                       # Cumulative time (in ticks) in various power states (Tick)
system.membus.reqLayer2.occupancy            12804000                       # Layer occupancy (ticks) (Tick)
system.membus.reqLayer2.utilization               0.0                       # Layer utilization (Ratio)
system.membus.respLayer1.occupancy           16757000                       # Layer occupancy (ticks) (Tick)
system.membus.respLayer1.utilization              0.0                       # Layer utilization (Ratio)
system.membus.snoop_filter.totRequests          11832                       # Total number of requests made to the snoop filter. (Count)
system.membus.snoop_filter.hitSingleRequests         5657                       # Number of requests hitting in the snoop filter with a single holder of the requested data. (Count)
system.membus.snoop_filter.hitMultiRequests            0                       # Number of requests hitting in the snoop filter with multiple (>1) holders of the requested data. (Count)
system.membus.snoop_filter.totSnoops                0                       # Total number of snoops made to the snoop filter. (Count)
system.membus.snoop_filter.hitSingleSnoops            0                       # Number of snoops hitting in the snoop filter with a single holder of the requested data. (Count)
system.membus.snoop_filter.hitMultiSnoops            0                       # Number of snoops hitting in the snoop filter with multiple (>1) holders of the requested data. (Count)
system.workload.inst.arm                            0                       # number of arm instructions executed (Count)
system.workload.inst.quiesce                        0                       # number of quiesce instructions executed (Count)

---------- End Simulation Statistics   ----------
