
---------- Begin Simulation Statistics ----------
simSeconds                                   0.020052                       # Number of seconds simulated (Second)
simTicks                                  20052399500                       # Number of ticks simulated (Tick)
finalTick                                 20052399500                       # Number of ticks from beginning of simulation (restored from checkpoints and never reset) (Tick)
simFreq                                  1000000000000                       # The number of ticks per simulated second ((Tick/Second))
hostSeconds                                    279.56                       # Real time elapsed on the host (Second)
hostTickRate                                 71727559                       # The number of ticks simulated per host second (ticks/s) ((Tick/Second))
hostMemory                                     803276                       # Number of bytes of host memory used (Byte)
simInsts                                     21343836                       # Number of instructions simulated (Count)
simOps                                       39396425                       # Number of ops (including micro ops) simulated (Count)
hostInstRate                                    76347                       # Simulator instruction rate (inst/s) ((Count/Second))
hostOpRate                                     140921                       # Simulator op (including micro ops) rate (op/s) ((Count/Second))
system.clk_domain.clock                           500                       # Clock period in ticks (Tick)
system.clk_domain.voltage_domain.voltage            1                       # Voltage in Volts (Volt)
system.cpu.numCycles                         40104800                       # Number of cpu cycles simulated (Cycle)
system.cpu.numWorkItemsStarted                      0                       # Number of work items this cpu started (Count)
system.cpu.numWorkItemsCompleted                    0                       # Number of work items this cpu completed (Count)
system.cpu.instsAdded                        46597818                       # Number of instructions added to the IQ (excludes non-spec) (Count)
system.cpu.nonSpecInstsAdded                    19360                       # Number of non-speculative instructions added to the IQ (Count)
system.cpu.instsIssued                       44775681                       # Number of instructions issued (Count)
system.cpu.squashedInstsIssued                   1220                       # Number of squashed instructions issued (Count)
system.cpu.squashedInstsExamined              7220747                       # Number of squashed instructions iterated over during squash; mainly for profiling (Count)
system.cpu.squashedOperandsExamined          10278559                       # Number of squashed operands that are examined and possibly removed from graph (Count)
system.cpu.squashedNonSpecRemoved               19342                       # Number of squashed non-spec instructions that were removed (Count)
system.cpu.numIssuedDist::samples            37993874                       # Number of insts issued each cycle (Count)
system.cpu.numIssuedDist::mean               1.178497                       # Number of insts issued each cycle (Count)
system.cpu.numIssuedDist::stdev              1.865382                       # Number of insts issued each cycle (Count)
system.cpu.numIssuedDist::underflows                0      0.00%      0.00% # Number of insts issued each cycle (Count)
system.cpu.numIssuedDist::0                  23425446     61.66%     61.66% # Number of insts issued each cycle (Count)
system.cpu.numIssuedDist::1                   3452868      9.09%     70.74% # Number of insts issued each cycle (Count)
system.cpu.numIssuedDist::2                   3175846      8.36%     79.10% # Number of insts issued each cycle (Count)
system.cpu.numIssuedDist::3                   2542752      6.69%     85.80% # Number of insts issued each cycle (Count)
system.cpu.numIssuedDist::4                   2290646      6.03%     91.82% # Number of insts issued each cycle (Count)
system.cpu.numIssuedDist::5                   1457288      3.84%     95.66% # Number of insts issued each cycle (Count)
system.cpu.numIssuedDist::6                    893908      2.35%     98.01% # Number of insts issued each cycle (Count)
system.cpu.numIssuedDist::7                    510567      1.34%     99.36% # Number of insts issued each cycle (Count)
system.cpu.numIssuedDist::8                    244553      0.64%    100.00% # Number of insts issued each cycle (Count)
system.cpu.numIssuedDist::overflows                 0      0.00%    100.00% # Number of insts issued each cycle (Count)
system.cpu.numIssuedDist::min_value                 0                       # Number of insts issued each cycle (Count)
system.cpu.numIssuedDist::max_value                 8                       # Number of insts issued each cycle (Count)
system.cpu.numIssuedDist::total              37993874                       # Number of insts issued each cycle (Count)
system.cpu.statFuBusy::No_OpClass                   0      0.00%      0.00% # attempts to use FU when none available (Count)
system.cpu.statFuBusy::IntAlu                       0      0.00%      0.00% # attempts to use FU when none available (Count)
system.cpu.statFuBusy::IntMult                      0      0.00%      0.00% # attempts to use FU when none available (Count)
system.cpu.statFuBusy::IntDiv                       0      0.00%      0.00% # attempts to use FU when none available (Count)
system.cpu.statFuBusy::FloatAdd                     0      0.00%      0.00% # attempts to use FU when none available (Count)
system.cpu.statFuBusy::FloatCmp                     0      0.00%      0.00% # attempts to use FU when none available (Count)
system.cpu.statFuBusy::FloatCvt                     0      0.00%      0.00% # attempts to use FU when none available (Count)
system.cpu.statFuBusy::FloatMult                    0      0.00%      0.00% # attempts to use FU when none available (Count)
system.cpu.statFuBusy::FloatMultAcc                 0      0.00%      0.00% # attempts to use FU when none available (Count)
system.cpu.statFuBusy::FloatDiv                     0      0.00%      0.00% # attempts to use FU when none available (Count)
system.cpu.statFuBusy::FloatMisc                    0      0.00%      0.00% # attempts to use FU when none available (Count)
system.cpu.statFuBusy::FloatSqrt                    0      0.00%      0.00% # attempts to use FU when none available (Count)
system.cpu.statFuBusy::SimdAdd                      0      0.00%      0.00% # attempts to use FU when none available (Count)
system.cpu.statFuBusy::SimdAddAcc                   0      0.00%      0.00% # attempts to use FU when none available (Count)
system.cpu.statFuBusy::SimdAlu                      0      0.00%      0.00% # attempts to use FU when none available (Count)
system.cpu.statFuBusy::SimdCmp                      0      0.00%      0.00% # attempts to use FU when none available (Count)
system.cpu.statFuBusy::SimdCvt                      0      0.00%      0.00% # attempts to use FU when none available (Count)
system.cpu.statFuBusy::SimdMisc                     0      0.00%      0.00% # attempts to use FU when none available (Count)
system.cpu.statFuBusy::SimdMult                     0      0.00%      0.00% # attempts to use FU when none available (Count)
system.cpu.statFuBusy::SimdMultAcc                  0      0.00%      0.00% # attempts to use FU when none available (Count)
system.cpu.statFuBusy::SimdShift                    0      0.00%      0.00% # attempts to use FU when none available (Count)
system.cpu.statFuBusy::SimdShiftAcc                 0      0.00%      0.00% # attempts to use FU when none available (Count)
system.cpu.statFuBusy::SimdDiv                      0      0.00%      0.00% # attempts to use FU when none available (Count)
system.cpu.statFuBusy::SimdSqrt                     0      0.00%      0.00% # attempts to use FU when none available (Count)
system.cpu.statFuBusy::SimdFloatAdd                 0      0.00%      0.00% # attempts to use FU when none available (Count)
system.cpu.statFuBusy::SimdFloatAlu                 0      0.00%      0.00% # attempts to use FU when none available (Count)
system.cpu.statFuBusy::SimdFloatCmp                 0      0.00%      0.00% # attempts to use FU when none available (Count)
system.cpu.statFuBusy::SimdFloatCvt                 0      0.00%      0.00% # attempts to use FU when none available (Count)
system.cpu.statFuBusy::SimdFloatDiv                 0      0.00%      0.00% # attempts to use FU when none available (Count)
system.cpu.statFuBusy::SimdFloatMisc                0      0.00%      0.00% # attempts to use FU when none available (Count)
system.cpu.statFuBusy::SimdFloatMult                0      0.00%      0.00% # attempts to use FU when none available (Count)
system.cpu.statFuBusy::SimdFloatMultAcc             0      0.00%      0.00% # attempts to use FU when none available (Count)
system.cpu.statFuBusy::SimdFloatSqrt                0      0.00%      0.00% # attempts to use FU when none available (Count)
system.cpu.statFuBusy::SimdReduceAdd                0      0.00%      0.00% # attempts to use FU when none available (Count)
system.cpu.statFuBusy::SimdReduceAlu                0      0.00%      0.00% # attempts to use FU when none available (Count)
system.cpu.statFuBusy::SimdReduceCmp                0      0.00%      0.00% # attempts to use FU when none available (Count)
system.cpu.statFuBusy::SimdFloatReduceAdd            0      0.00%      0.00% # attempts to use FU when none available (Count)
system.cpu.statFuBusy::SimdFloatReduceCmp            0      0.00%      0.00% # attempts to use FU when none available (Count)
system.cpu.statFuBusy::SimdAes                      0      0.00%      0.00% # attempts to use FU when none available (Count)
system.cpu.statFuBusy::SimdAesMix                   0      0.00%      0.00% # attempts to use FU when none available (Count)
system.cpu.statFuBusy::SimdSha1Hash                 0      0.00%      0.00% # attempts to use FU when none available (Count)
system.cpu.statFuBusy::SimdSha1Hash2                0      0.00%      0.00% # attempts to use FU when none available (Count)
system.cpu.statFuBusy::SimdSha256Hash               0      0.00%      0.00% # attempts to use FU when none available (Count)
system.cpu.statFuBusy::SimdSha256Hash2              0      0.00%      0.00% # attempts to use FU when none available (Count)
system.cpu.statFuBusy::SimdShaSigma2                0      0.00%      0.00% # attempts to use FU when none available (Count)
system.cpu.statFuBusy::SimdShaSigma3                0      0.00%      0.00% # attempts to use FU when none available (Count)
system.cpu.statFuBusy::SimdPredAlu                  0      0.00%      0.00% # attempts to use FU when none available (Count)
system.cpu.statFuBusy::MemRead                  84901     64.81%     64.81% # attempts to use FU when none available (Count)
system.cpu.statFuBusy::MemWrite                 46067     35.17%     99.97% # attempts to use FU when none available (Count)
system.cpu.statFuBusy::FloatMemRead                16      0.01%     99.99% # attempts to use FU when none available (Count)
system.cpu.statFuBusy::FloatMemWrite               18      0.01%    100.00% # attempts to use FU when none available (Count)
system.cpu.statFuBusy::IprAccess                    0      0.00%    100.00% # attempts to use FU when none available (Count)
system.cpu.statFuBusy::InstPrefetch                 0      0.00%    100.00% # attempts to use FU when none available (Count)
system.cpu.statIssuedInstType_0::No_OpClass        54449      0.12%      0.12% # Number of instructions issued per FU type, per thread (Count)
system.cpu.statIssuedInstType_0::IntAlu      31822575     71.07%     71.19% # Number of instructions issued per FU type, per thread (Count)
system.cpu.statIssuedInstType_0::IntMult       128936      0.29%     71.48% # Number of instructions issued per FU type, per thread (Count)
system.cpu.statIssuedInstType_0::IntDiv        126963      0.28%     71.76% # Number of instructions issued per FU type, per thread (Count)
system.cpu.statIssuedInstType_0::FloatAdd        35441      0.08%     71.84% # Number of instructions issued per FU type, per thread (Count)
system.cpu.statIssuedInstType_0::FloatCmp            0      0.00%     71.84% # Number of instructions issued per FU type, per thread (Count)
system.cpu.statIssuedInstType_0::FloatCvt           32      0.00%     71.84% # Number of instructions issued per FU type, per thread (Count)
system.cpu.statIssuedInstType_0::FloatMult            0      0.00%     71.84% # Number of instructions issued per FU type, per thread (Count)
system.cpu.statIssuedInstType_0::FloatMultAcc            0      0.00%     71.84% # Number of instructions issued per FU type, per thread (Count)
system.cpu.statIssuedInstType_0::FloatDiv            0      0.00%     71.84% # Number of instructions issued per FU type, per thread (Count)
system.cpu.statIssuedInstType_0::FloatMisc            0      0.00%     71.84% # Number of instructions issued per FU type, per thread (Count)
system.cpu.statIssuedInstType_0::FloatSqrt            0      0.00%     71.84% # Number of instructions issued per FU type, per thread (Count)
system.cpu.statIssuedInstType_0::SimdAdd            0      0.00%     71.84% # Number of instructions issued per FU type, per thread (Count)
system.cpu.statIssuedInstType_0::SimdAddAcc            0      0.00%     71.84% # Number of instructions issued per FU type, per thread (Count)
system.cpu.statIssuedInstType_0::SimdAlu        70850      0.16%     72.00% # Number of instructions issued per FU type, per thread (Count)
system.cpu.statIssuedInstType_0::SimdCmp            0      0.00%     72.00% # Number of instructions issued per FU type, per thread (Count)
system.cpu.statIssuedInstType_0::SimdCvt       141716      0.32%     72.32% # Number of instructions issued per FU type, per thread (Count)
system.cpu.statIssuedInstType_0::SimdMisc       389688      0.87%     73.19% # Number of instructions issued per FU type, per thread (Count)
system.cpu.statIssuedInstType_0::SimdMult            0      0.00%     73.19% # Number of instructions issued per FU type, per thread (Count)
system.cpu.statIssuedInstType_0::SimdMultAcc            0      0.00%     73.19% # Number of instructions issued per FU type, per thread (Count)
system.cpu.statIssuedInstType_0::SimdShift            0      0.00%     73.19% # Number of instructions issued per FU type, per thread (Count)
system.cpu.statIssuedInstType_0::SimdShiftAcc            0      0.00%     73.19% # Number of instructions issued per FU type, per thread (Count)
system.cpu.statIssuedInstType_0::SimdDiv            0      0.00%     73.19% # Number of instructions issued per FU type, per thread (Count)
system.cpu.statIssuedInstType_0::SimdSqrt            0      0.00%     73.19% # Number of instructions issued per FU type, per thread (Count)
system.cpu.statIssuedInstType_0::SimdFloatAdd            0      0.00%     73.19% # Number of instructions issued per FU type, per thread (Count)
system.cpu.statIssuedInstType_0::SimdFloatAlu            0      0.00%     73.19% # Number of instructions issued per FU type, per thread (Count)
system.cpu.statIssuedInstType_0::SimdFloatCmp            0      0.00%     73.19% # Number of instructions issued per FU type, per thread (Count)
system.cpu.statIssuedInstType_0::SimdFloatCvt            0      0.00%     73.19% # Number of instructions issued per FU type, per thread (Count)
system.cpu.statIssuedInstType_0::SimdFloatDiv            0      0.00%     73.19% # Number of instructions issued per FU type, per thread (Count)
system.cpu.statIssuedInstType_0::SimdFloatMisc            0      0.00%     73.19% # Number of instructions issued per FU type, per thread (Count)
system.cpu.statIssuedInstType_0::SimdFloatMult            0      0.00%     73.19% # Number of instructions issued per FU type, per thread (Count)
system.cpu.statIssuedInstType_0::SimdFloatMultAcc            0      0.00%     73.19% # Number of instructions issued per FU type, per thread (Count)
system.cpu.statIssuedInstType_0::SimdFloatSqrt            0      0.00%     73.19% # Number of instructions issued per FU type, per thread (Count)
system.cpu.statIssuedInstType_0::SimdReduceAdd            0      0.00%     73.19% # Number of instructions issued per FU type, per thread (Count)
system.cpu.statIssuedInstType_0::SimdReduceAlu            0      0.00%     73.19% # Number of instructions issued per FU type, per thread (Count)
system.cpu.statIssuedInstType_0::SimdReduceCmp            0      0.00%     73.19% # Number of instructions issued per FU type, per thread (Count)
system.cpu.statIssuedInstType_0::SimdFloatReduceAdd            0      0.00%     73.19% # Number of instructions issued per FU type, per thread (Count)
system.cpu.statIssuedInstType_0::SimdFloatReduceCmp            0      0.00%     73.19% # Number of instructions issued per FU type, per thread (Count)
system.cpu.statIssuedInstType_0::SimdAes            0      0.00%     73.19% # Number of instructions issued per FU type, per thread (Count)
system.cpu.statIssuedInstType_0::SimdAesMix            0      0.00%     73.19% # Number of instructions issued per FU type, per thread (Count)
system.cpu.statIssuedInstType_0::SimdSha1Hash            0      0.00%     73.19% # Number of instructions issued per FU type, per thread (Count)
system.cpu.statIssuedInstType_0::SimdSha1Hash2            0      0.00%     73.19% # Number of instructions issued per FU type, per thread (Count)
system.cpu.statIssuedInstType_0::SimdSha256Hash            0      0.00%     73.19% # Number of instructions issued per FU type, per thread (Count)
system.cpu.statIssuedInstType_0::SimdSha256Hash2            0      0.00%     73.19% # Number of instructions issued per FU type, per thread (Count)
system.cpu.statIssuedInstType_0::SimdShaSigma2            0      0.00%     73.19% # Number of instructions issued per FU type, per thread (Count)
system.cpu.statIssuedInstType_0::SimdShaSigma3            0      0.00%     73.19% # Number of instructions issued per FU type, per thread (Count)
system.cpu.statIssuedInstType_0::SimdPredAlu            0      0.00%     73.19% # Number of instructions issued per FU type, per thread (Count)
system.cpu.statIssuedInstType_0::MemRead      8432344     18.83%     92.02% # Number of instructions issued per FU type, per thread (Count)
system.cpu.statIssuedInstType_0::MemWrite      3501691      7.82%     99.84% # Number of instructions issued per FU type, per thread (Count)
system.cpu.statIssuedInstType_0::FloatMemRead        70924      0.16%    100.00% # Number of instructions issued per FU type, per thread (Count)
system.cpu.statIssuedInstType_0::FloatMemWrite           72      0.00%    100.00% # Number of instructions issued per FU type, per thread (Count)
system.cpu.statIssuedInstType_0::IprAccess            0      0.00%    100.00% # Number of instructions issued per FU type, per thread (Count)
system.cpu.statIssuedInstType_0::InstPrefetch            0      0.00%    100.00% # Number of instructions issued per FU type, per thread (Count)
system.cpu.statIssuedInstType_0::total       44775681                       # Number of instructions issued per FU type, per thread (Count)
system.cpu.issueRate                         1.116467                       # Inst issue rate ((Count/Cycle))
system.cpu.fuBusy                              131002                       # FU busy when requested (Count)
system.cpu.fuBusyRate                        0.002926                       # FU busy rate (busy events/executed inst) ((Count/Count))
system.cpu.intInstQueueReads                126047410                       # Number of integer instruction queue reads (Count)
system.cpu.intInstQueueWrites                53023409                       # Number of integer instruction queue writes (Count)
system.cpu.intInstQueueWakeupAccesses        43307532                       # Number of integer instruction queue wakeup accesses (Count)
system.cpu.fpInstQueueReads                   1630048                       # Number of floating instruction queue reads (Count)
system.cpu.fpInstQueueWrites                   815059                       # Number of floating instruction queue writes (Count)
system.cpu.fpInstQueueWakeupAccesses           815001                       # Number of floating instruction queue wakeup accesses (Count)
system.cpu.vecInstQueueReads                        0                       # Number of vector instruction queue reads (Count)
system.cpu.vecInstQueueWrites                       0                       # Number of vector instruction queue writes (Count)
system.cpu.vecInstQueueWakeupAccesses               0                       # Number of vector instruction queue wakeup accesses (Count)
system.cpu.intAluAccesses                    44037193                       # Number of integer alu accesses (Count)
system.cpu.fpAluAccesses                       815041                       # Number of floating point alu accesses (Count)
system.cpu.vecAluAccesses                           0                       # Number of vector alu accesses (Count)
system.cpu.numInsts                          44410835                       # Number of executed instructions (Count)
system.cpu.numLoadInsts                       8373688                       # Number of load instructions executed (Count)
system.cpu.numSquashedInsts                    364846                       # Number of squashed instructions skipped in execute (Count)
system.cpu.numSwp                                   0                       # Number of swp insts executed (Count)
system.cpu.numNop                                   0                       # Number of nop insts executed (Count)
system.cpu.numRefs                           11817595                       # Number of memory reference insts executed (Count)
system.cpu.numBranches                        4163708                       # Number of branches executed (Count)
system.cpu.numStoreInsts                      3443907                       # Number of stores executed (Count)
system.cpu.numRate                           1.107370                       # Inst execution rate ((Count/Cycle))
system.cpu.timesIdled                          673691                       # Number of times that the entire CPU went into an idle state and unscheduled itself (Count)
system.cpu.idleCycles                         2110926                       # Total number of cycles that the CPU has spent unscheduled due to idling (Cycle)
system.cpu.committedInsts                    21343836                       # Number of Instructions Simulated (Count)
system.cpu.committedOps                      39396425                       # Number of Ops (including micro ops) Simulated (Count)
system.cpu.cpi                               1.878987                       # CPI: Cycles Per Instruction ((Cycle/Count))
system.cpu.totalCpi                          1.878987                       # CPI: Total CPI of All Threads ((Cycle/Count))
system.cpu.ipc                               0.532202                       # IPC: Instructions Per Cycle ((Count/Cycle))
system.cpu.totalIpc                          0.532202                       # IPC: Total IPC of All Threads ((Count/Cycle))
system.cpu.intRegfileReads                   55795591                       # Number of integer regfile reads (Count)
system.cpu.intRegfileWrites                  33242935                       # Number of integer regfile writes (Count)
system.cpu.fpRegfileReads                     1452599                       # Number of floating regfile reads (Count)
system.cpu.fpRegfileWrites                     673187                       # Number of floating regfile writes (Count)
system.cpu.ccRegfileReads                    20217344                       # number of cc regfile reads (Count)
system.cpu.ccRegfileWrites                   13750655                       # number of cc regfile writes (Count)
system.cpu.miscRegfileReads                  20501940                       # number of misc regfile reads (Count)
system.cpu.miscRegfileWrites                       18                       # number of misc regfile writes (Count)
system.cpu.MemDepUnit__0.insertedLoads        8882077                       # Number of loads inserted to the mem dependence unit. (Count)
system.cpu.MemDepUnit__0.insertedStores       3705335                       # Number of stores inserted to the mem dependence unit. (Count)
system.cpu.MemDepUnit__0.conflictingLoads      1454400                       # Number of conflicting loads. (Count)
system.cpu.MemDepUnit__0.conflictingStores       286056                       # Number of conflicting stores. (Count)
system.cpu.MemDepUnit__1.insertedLoads              0                       # Number of loads inserted to the mem dependence unit. (Count)
system.cpu.MemDepUnit__1.insertedStores             0                       # Number of stores inserted to the mem dependence unit. (Count)
system.cpu.MemDepUnit__1.conflictingLoads            0                       # Number of conflicting loads. (Count)
system.cpu.MemDepUnit__1.conflictingStores            0                       # Number of conflicting stores. (Count)
system.cpu.MemDepUnit__2.insertedLoads              0                       # Number of loads inserted to the mem dependence unit. (Count)
system.cpu.MemDepUnit__2.insertedStores             0                       # Number of stores inserted to the mem dependence unit. (Count)
system.cpu.MemDepUnit__2.conflictingLoads            0                       # Number of conflicting loads. (Count)
system.cpu.MemDepUnit__2.conflictingStores            0                       # Number of conflicting stores. (Count)
system.cpu.MemDepUnit__3.insertedLoads              0                       # Number of loads inserted to the mem dependence unit. (Count)
system.cpu.MemDepUnit__3.insertedStores             0                       # Number of stores inserted to the mem dependence unit. (Count)
system.cpu.MemDepUnit__3.conflictingLoads            0                       # Number of conflicting loads. (Count)
system.cpu.MemDepUnit__3.conflictingStores            0                       # Number of conflicting stores. (Count)
system.cpu.branchPred.lookups                 4950726                       # Number of BP lookups (Count)
system.cpu.branchPred.condPredicted           3727232                       # Number of conditional branches predicted (Count)
system.cpu.branchPred.condIncorrect            247555                       # Number of conditional branches incorrect (Count)
system.cpu.branchPred.BTBLookups              2728703                       # Number of BTB lookups (Count)
system.cpu.branchPred.BTBHits                 2653973                       # Number of BTB hits (Count)
system.cpu.branchPred.BTBHitRatio            0.972613                       # BTB Hit Ratio (Ratio)
system.cpu.branchPred.RASUsed                  344485                       # Number of times the RAS was used to get a target. (Count)
system.cpu.branchPred.RASIncorrect                684                       # Number of incorrect RAS predictions. (Count)
system.cpu.branchPred.indirectLookups          160436                       # Number of indirect predictor lookups. (Count)
system.cpu.branchPred.indirectHits             159760                       # Number of indirect target hits. (Count)
system.cpu.branchPred.indirectMisses              676                       # Number of indirect misses. (Count)
system.cpu.branchPred.indirectMispredicted          161                       # Number of mispredicted indirect branches. (Count)
system.cpu.branchPred.loop_predictor.correct      2524864                       # Number of times the loop predictor is the provider and the prediction is correct (Count)
system.cpu.branchPred.loop_predictor.wrong       327570                       # Number of times the loop predictor is the provider and the prediction is wrong (Count)
system.cpu.branchPred.tage.longestMatchProviderCorrect      1164487                       # Number of times TAGE Longest Match is the provider and the prediction is correct (Count)
system.cpu.branchPred.tage.altMatchProviderCorrect        41512                       # Number of times TAGE Alt Match is the provider and the prediction is correct (Count)
system.cpu.branchPred.tage.bimodalAltMatchProviderCorrect         1040                       # Number of times TAGE Alt Match is the bimodal and it is the provider and the prediction is correct (Count)
system.cpu.branchPred.tage.bimodalProviderCorrect      1481937                       # Number of times there are no hits on the TAGE tables and the bimodal prediction is correct (Count)
system.cpu.branchPred.tage.longestMatchProviderWrong       106261                       # Number of times TAGE Longest Match is the provider and the prediction is wrong (Count)
system.cpu.branchPred.tage.altMatchProviderWrong        28214                       # Number of times TAGE Alt Match is the provider and the prediction is wrong (Count)
system.cpu.branchPred.tage.bimodalAltMatchProviderWrong          581                       # Number of times TAGE Alt Match is the bimodal and it is the provider and the prediction is wrong (Count)
system.cpu.branchPred.tage.bimodalProviderWrong          917                       # Number of times there are no hits on the TAGE tables and the bimodal prediction is wrong (Count)
system.cpu.branchPred.tage.altMatchProviderWouldHaveHit        33609                       # Number of times TAGE Longest Match is the provider, the prediction is wrong and Alt Match prediction was correct (Count)
system.cpu.branchPred.tage.longestMatchProviderWouldHaveHit        15540                       # Number of times TAGE Alt Match is the provider, the prediction is wrong and Longest Match prediction was correct (Count)
system.cpu.branchPred.tage.longestMatchProvider::0            0                       # TAGE provider for longest match (Count)
system.cpu.branchPred.tage.longestMatchProvider::1       333519                       # TAGE provider for longest match (Count)
system.cpu.branchPred.tage.longestMatchProvider::2       307311                       # TAGE provider for longest match (Count)
system.cpu.branchPred.tage.longestMatchProvider::3       265607                       # TAGE provider for longest match (Count)
system.cpu.branchPred.tage.longestMatchProvider::4       230863                       # TAGE provider for longest match (Count)
system.cpu.branchPred.tage.longestMatchProvider::5        66636                       # TAGE provider for longest match (Count)
system.cpu.branchPred.tage.longestMatchProvider::6        31419                       # TAGE provider for longest match (Count)
system.cpu.branchPred.tage.longestMatchProvider::7         5795                       # TAGE provider for longest match (Count)
system.cpu.branchPred.tage.longestMatchProvider::8        15590                       # TAGE provider for longest match (Count)
system.cpu.branchPred.tage.longestMatchProvider::9        34553                       # TAGE provider for longest match (Count)
system.cpu.branchPred.tage.longestMatchProvider::10        19317                       # TAGE provider for longest match (Count)
system.cpu.branchPred.tage.longestMatchProvider::11        12491                       # TAGE provider for longest match (Count)
system.cpu.branchPred.tage.longestMatchProvider::12        17373                       # TAGE provider for longest match (Count)
system.cpu.branchPred.tage.altMatchProvider::0       662285                       # TAGE provider for alt match (Count)
system.cpu.branchPred.tage.altMatchProvider::1       118016                       # TAGE provider for alt match (Count)
system.cpu.branchPred.tage.altMatchProvider::2       197955                       # TAGE provider for alt match (Count)
system.cpu.branchPred.tage.altMatchProvider::3       227411                       # TAGE provider for alt match (Count)
system.cpu.branchPred.tage.altMatchProvider::4        35325                       # TAGE provider for alt match (Count)
system.cpu.branchPred.tage.altMatchProvider::5        17741                       # TAGE provider for alt match (Count)
system.cpu.branchPred.tage.altMatchProvider::6         6524                       # TAGE provider for alt match (Count)
system.cpu.branchPred.tage.altMatchProvider::7        15920                       # TAGE provider for alt match (Count)
system.cpu.branchPred.tage.altMatchProvider::8        19985                       # TAGE provider for alt match (Count)
system.cpu.branchPred.tage.altMatchProvider::9        20086                       # TAGE provider for alt match (Count)
system.cpu.branchPred.tage.altMatchProvider::10        11274                       # TAGE provider for alt match (Count)
system.cpu.branchPred.tage.altMatchProvider::11         7952                       # TAGE provider for alt match (Count)
system.cpu.branchPred.tage.altMatchProvider::12            0                       # TAGE provider for alt match (Count)
system.cpu.commit.commitSquashedInsts         6600325                       # The number of squashed insts skipped by commit (Count)
system.cpu.commit.commitNonSpecStalls              18                       # The number of times commit has been forced to stall to communicate backwards (Count)
system.cpu.commit.branchMispredicts            194282                       # The number of times a branch was mispredicted (Count)
system.cpu.commit.numCommittedDist::samples     37058620                       # Number of insts commited each cycle (Count)
system.cpu.commit.numCommittedDist::mean     1.063084                       # Number of insts commited each cycle (Count)
system.cpu.commit.numCommittedDist::stdev     2.025918                       # Number of insts commited each cycle (Count)
system.cpu.commit.numCommittedDist::underflows            0      0.00%      0.00% # Number of insts commited each cycle (Count)
system.cpu.commit.numCommittedDist::0        24354267     65.72%     65.72% # Number of insts commited each cycle (Count)
system.cpu.commit.numCommittedDist::1         4406485     11.89%     77.61% # Number of insts commited each cycle (Count)
system.cpu.commit.numCommittedDist::2         2231242      6.02%     83.63% # Number of insts commited each cycle (Count)
system.cpu.commit.numCommittedDist::3         2553865      6.89%     90.52% # Number of insts commited each cycle (Count)
system.cpu.commit.numCommittedDist::4          613136      1.65%     92.18% # Number of insts commited each cycle (Count)
system.cpu.commit.numCommittedDist::5          525695      1.42%     93.59% # Number of insts commited each cycle (Count)
system.cpu.commit.numCommittedDist::6          440836      1.19%     94.78% # Number of insts commited each cycle (Count)
system.cpu.commit.numCommittedDist::7          324926      0.88%     95.66% # Number of insts commited each cycle (Count)
system.cpu.commit.numCommittedDist::8         1608168      4.34%    100.00% # Number of insts commited each cycle (Count)
system.cpu.commit.numCommittedDist::overflows            0      0.00%    100.00% # Number of insts commited each cycle (Count)
system.cpu.commit.numCommittedDist::min_value            0                       # Number of insts commited each cycle (Count)
system.cpu.commit.numCommittedDist::max_value            8                       # Number of insts commited each cycle (Count)
system.cpu.commit.numCommittedDist::total     37058620                       # Number of insts commited each cycle (Count)
system.cpu.commit.instsCommitted             21343836                       # Number of instructions committed (Count)
system.cpu.commit.opsCommitted               39396425                       # Number of ops (including micro ops) committed (Count)
system.cpu.commit.memRefs                     9984452                       # Number of memory references committed (Count)
system.cpu.commit.loads                       6778153                       # Number of loads committed (Count)
system.cpu.commit.amos                              0                       # Number of atomic instructions committed (Count)
system.cpu.commit.membars                           0                       # Number of memory barriers committed (Count)
system.cpu.commit.branches                    3853625                       # Number of branches committed (Count)
system.cpu.commit.vectorInstructions                0                       # Number of committed Vector instructions. (Count)
system.cpu.commit.floating                     814975                       # Number of committed floating point instructions. (Count)
system.cpu.commit.integer                    38702115                       # Number of committed integer instructions. (Count)
system.cpu.commit.functionCalls                304177                       # Number of function calls committed. (Count)
system.cpu.commit.committedInstType_0::No_OpClass        53708      0.14%      0.14% # Class of committed instruction (Count)
system.cpu.commit.committedInstType_0::IntAlu     28464930     72.25%     72.39% # Class of committed instruction (Count)
system.cpu.commit.committedInstType_0::IntMult       128911      0.33%     72.72% # Class of committed instruction (Count)
system.cpu.commit.committedInstType_0::IntDiv       126710      0.32%     73.04% # Class of committed instruction (Count)
system.cpu.commit.committedInstType_0::FloatAdd        35441      0.09%     73.13% # Class of committed instruction (Count)
system.cpu.commit.committedInstType_0::FloatCmp            0      0.00%     73.13% # Class of committed instruction (Count)
system.cpu.commit.committedInstType_0::FloatCvt           32      0.00%     73.13% # Class of committed instruction (Count)
system.cpu.commit.committedInstType_0::FloatMult            0      0.00%     73.13% # Class of committed instruction (Count)
system.cpu.commit.committedInstType_0::FloatMultAcc            0      0.00%     73.13% # Class of committed instruction (Count)
system.cpu.commit.committedInstType_0::FloatDiv            0      0.00%     73.13% # Class of committed instruction (Count)
system.cpu.commit.committedInstType_0::FloatMisc            0      0.00%     73.13% # Class of committed instruction (Count)
system.cpu.commit.committedInstType_0::FloatSqrt            0      0.00%     73.13% # Class of committed instruction (Count)
system.cpu.commit.committedInstType_0::SimdAdd            0      0.00%     73.13% # Class of committed instruction (Count)
system.cpu.commit.committedInstType_0::SimdAddAcc            0      0.00%     73.13% # Class of committed instruction (Count)
system.cpu.commit.committedInstType_0::SimdAlu        70850      0.18%     73.31% # Class of committed instruction (Count)
system.cpu.commit.committedInstType_0::SimdCmp            0      0.00%     73.31% # Class of committed instruction (Count)
system.cpu.commit.committedInstType_0::SimdCvt       141708      0.36%     73.67% # Class of committed instruction (Count)
system.cpu.commit.committedInstType_0::SimdMisc       389683      0.99%     74.66% # Class of committed instruction (Count)
system.cpu.commit.committedInstType_0::SimdMult            0      0.00%     74.66% # Class of committed instruction (Count)
system.cpu.commit.committedInstType_0::SimdMultAcc            0      0.00%     74.66% # Class of committed instruction (Count)
system.cpu.commit.committedInstType_0::SimdShift            0      0.00%     74.66% # Class of committed instruction (Count)
system.cpu.commit.committedInstType_0::SimdShiftAcc            0      0.00%     74.66% # Class of committed instruction (Count)
system.cpu.commit.committedInstType_0::SimdDiv            0      0.00%     74.66% # Class of committed instruction (Count)
system.cpu.commit.committedInstType_0::SimdSqrt            0      0.00%     74.66% # Class of committed instruction (Count)
system.cpu.commit.committedInstType_0::SimdFloatAdd            0      0.00%     74.66% # Class of committed instruction (Count)
system.cpu.commit.committedInstType_0::SimdFloatAlu            0      0.00%     74.66% # Class of committed instruction (Count)
system.cpu.commit.committedInstType_0::SimdFloatCmp            0      0.00%     74.66% # Class of committed instruction (Count)
system.cpu.commit.committedInstType_0::SimdFloatCvt            0      0.00%     74.66% # Class of committed instruction (Count)
system.cpu.commit.committedInstType_0::SimdFloatDiv            0      0.00%     74.66% # Class of committed instruction (Count)
system.cpu.commit.committedInstType_0::SimdFloatMisc            0      0.00%     74.66% # Class of committed instruction (Count)
system.cpu.commit.committedInstType_0::SimdFloatMult            0      0.00%     74.66% # Class of committed instruction (Count)
system.cpu.commit.committedInstType_0::SimdFloatMultAcc            0      0.00%     74.66% # Class of committed instruction (Count)
system.cpu.commit.committedInstType_0::SimdFloatSqrt            0      0.00%     74.66% # Class of committed instruction (Count)
system.cpu.commit.committedInstType_0::SimdReduceAdd            0      0.00%     74.66% # Class of committed instruction (Count)
system.cpu.commit.committedInstType_0::SimdReduceAlu            0      0.00%     74.66% # Class of committed instruction (Count)
system.cpu.commit.committedInstType_0::SimdReduceCmp            0      0.00%     74.66% # Class of committed instruction (Count)
system.cpu.commit.committedInstType_0::SimdFloatReduceAdd            0      0.00%     74.66% # Class of committed instruction (Count)
system.cpu.commit.committedInstType_0::SimdFloatReduceCmp            0      0.00%     74.66% # Class of committed instruction (Count)
system.cpu.commit.committedInstType_0::SimdAes            0      0.00%     74.66% # Class of committed instruction (Count)
system.cpu.commit.committedInstType_0::SimdAesMix            0      0.00%     74.66% # Class of committed instruction (Count)
system.cpu.commit.committedInstType_0::SimdSha1Hash            0      0.00%     74.66% # Class of committed instruction (Count)
system.cpu.commit.committedInstType_0::SimdSha1Hash2            0      0.00%     74.66% # Class of committed instruction (Count)
system.cpu.commit.committedInstType_0::SimdSha256Hash            0      0.00%     74.66% # Class of committed instruction (Count)
system.cpu.commit.committedInstType_0::SimdSha256Hash2            0      0.00%     74.66% # Class of committed instruction (Count)
system.cpu.commit.committedInstType_0::SimdShaSigma2            0      0.00%     74.66% # Class of committed instruction (Count)
system.cpu.commit.committedInstType_0::SimdShaSigma3            0      0.00%     74.66% # Class of committed instruction (Count)
system.cpu.commit.committedInstType_0::SimdPredAlu            0      0.00%     74.66% # Class of committed instruction (Count)
system.cpu.commit.committedInstType_0::MemRead      6707235     17.02%     91.68% # Class of committed instruction (Count)
system.cpu.commit.committedInstType_0::MemWrite      3206235      8.14%     99.82% # Class of committed instruction (Count)
system.cpu.commit.committedInstType_0::FloatMemRead        70918      0.18%    100.00% # Class of committed instruction (Count)
system.cpu.commit.committedInstType_0::FloatMemWrite           64      0.00%    100.00% # Class of committed instruction (Count)
system.cpu.commit.committedInstType_0::IprAccess            0      0.00%    100.00% # Class of committed instruction (Count)
system.cpu.commit.committedInstType_0::InstPrefetch            0      0.00%    100.00% # Class of committed instruction (Count)
system.cpu.commit.committedInstType_0::total     39396425                       # Class of committed instruction (Count)
system.cpu.commit.commitEligibleSamples       1608168                       # number cycles where commit BW limit reached (Cycle)
system.cpu.dcache.demandHits::cpu.data        9549328                       # number of demand (read+write) hits (Count)
system.cpu.dcache.demandHits::total           9549328                       # number of demand (read+write) hits (Count)
system.cpu.dcache.overallHits::cpu.data       9549328                       # number of overall hits (Count)
system.cpu.dcache.overallHits::total          9549328                       # number of overall hits (Count)
system.cpu.dcache.demandMisses::cpu.data       131599                       # number of demand (read+write) misses (Count)
system.cpu.dcache.demandMisses::total          131599                       # number of demand (read+write) misses (Count)
system.cpu.dcache.overallMisses::cpu.data       131599                       # number of overall misses (Count)
system.cpu.dcache.overallMisses::total         131599                       # number of overall misses (Count)
system.cpu.dcache.demandMissLatency::cpu.data   2356406997                       # number of demand (read+write) miss ticks (Tick)
system.cpu.dcache.demandMissLatency::total   2356406997                       # number of demand (read+write) miss ticks (Tick)
system.cpu.dcache.overallMissLatency::cpu.data   2356406997                       # number of overall miss ticks (Tick)
system.cpu.dcache.overallMissLatency::total   2356406997                       # number of overall miss ticks (Tick)
system.cpu.dcache.demandAccesses::cpu.data      9680927                       # number of demand (read+write) accesses (Count)
system.cpu.dcache.demandAccesses::total       9680927                       # number of demand (read+write) accesses (Count)
system.cpu.dcache.overallAccesses::cpu.data      9680927                       # number of overall (read+write) accesses (Count)
system.cpu.dcache.overallAccesses::total      9680927                       # number of overall (read+write) accesses (Count)
system.cpu.dcache.demandMissRate::cpu.data     0.013594                       # miss rate for demand accesses (Ratio)
system.cpu.dcache.demandMissRate::total      0.013594                       # miss rate for demand accesses (Ratio)
system.cpu.dcache.overallMissRate::cpu.data     0.013594                       # miss rate for overall accesses (Ratio)
system.cpu.dcache.overallMissRate::total     0.013594                       # miss rate for overall accesses (Ratio)
system.cpu.dcache.demandAvgMissLatency::cpu.data 17905.964308                       # average overall miss latency in ticks ((Tick/Count))
system.cpu.dcache.demandAvgMissLatency::total 17905.964308                       # average overall miss latency in ticks ((Tick/Count))
system.cpu.dcache.overallAvgMissLatency::cpu.data 17905.964308                       # average overall miss latency ((Tick/Count))
system.cpu.dcache.overallAvgMissLatency::total 17905.964308                       # average overall miss latency ((Tick/Count))
system.cpu.dcache.blockedCycles::no_mshrs        22409                       # number of cycles access was blocked (Cycle)
system.cpu.dcache.blockedCycles::no_targets            0                       # number of cycles access was blocked (Cycle)
system.cpu.dcache.blockedCauses::no_mshrs          455                       # number of times access was blocked (Count)
system.cpu.dcache.blockedCauses::no_targets            0                       # number of times access was blocked (Count)
system.cpu.dcache.avgBlocked::no_mshrs      49.250549                       # average number of cycles each access was blocked ((Cycle/Count))
system.cpu.dcache.avgBlocked::no_targets          nan                       # average number of cycles each access was blocked ((Cycle/Count))
system.cpu.dcache.writebacks::writebacks        38833                       # number of writebacks (Count)
system.cpu.dcache.writebacks::total             38833                       # number of writebacks (Count)
system.cpu.dcache.demandMshrHits::cpu.data        42047                       # number of demand (read+write) MSHR hits (Count)
system.cpu.dcache.demandMshrHits::total         42047                       # number of demand (read+write) MSHR hits (Count)
system.cpu.dcache.overallMshrHits::cpu.data        42047                       # number of overall MSHR hits (Count)
system.cpu.dcache.overallMshrHits::total        42047                       # number of overall MSHR hits (Count)
system.cpu.dcache.demandMshrMisses::cpu.data        89552                       # number of demand (read+write) MSHR misses (Count)
system.cpu.dcache.demandMshrMisses::total        89552                       # number of demand (read+write) MSHR misses (Count)
system.cpu.dcache.overallMshrMisses::cpu.data        89552                       # number of overall MSHR misses (Count)
system.cpu.dcache.overallMshrMisses::total        89552                       # number of overall MSHR misses (Count)
system.cpu.dcache.demandMshrMissLatency::cpu.data   1407150497                       # number of demand (read+write) MSHR miss ticks (Tick)
system.cpu.dcache.demandMshrMissLatency::total   1407150497                       # number of demand (read+write) MSHR miss ticks (Tick)
system.cpu.dcache.overallMshrMissLatency::cpu.data   1407150497                       # number of overall MSHR miss ticks (Tick)
system.cpu.dcache.overallMshrMissLatency::total   1407150497                       # number of overall MSHR miss ticks (Tick)
system.cpu.dcache.demandMshrMissRate::cpu.data     0.009250                       # mshr miss ratio for demand accesses (Ratio)
system.cpu.dcache.demandMshrMissRate::total     0.009250                       # mshr miss ratio for demand accesses (Ratio)
system.cpu.dcache.overallMshrMissRate::cpu.data     0.009250                       # mshr miss ratio for overall accesses (Ratio)
system.cpu.dcache.overallMshrMissRate::total     0.009250                       # mshr miss ratio for overall accesses (Ratio)
system.cpu.dcache.demandAvgMshrMissLatency::cpu.data 15713.222452                       # average overall mshr miss latency ((Tick/Count))
system.cpu.dcache.demandAvgMshrMissLatency::total 15713.222452                       # average overall mshr miss latency ((Tick/Count))
system.cpu.dcache.overallAvgMshrMissLatency::cpu.data 15713.222452                       # average overall mshr miss latency ((Tick/Count))
system.cpu.dcache.overallAvgMshrMissLatency::total 15713.222452                       # average overall mshr miss latency ((Tick/Count))
system.cpu.dcache.replacements                  89488                       # number of replacements (Count)
system.cpu.dcache.ReadReq.hits::cpu.data      6362214                       # number of ReadReq hits (Count)
system.cpu.dcache.ReadReq.hits::total         6362214                       # number of ReadReq hits (Count)
system.cpu.dcache.ReadReq.misses::cpu.data       112412                       # number of ReadReq misses (Count)
system.cpu.dcache.ReadReq.misses::total        112412                       # number of ReadReq misses (Count)
system.cpu.dcache.ReadReq.missLatency::cpu.data   1980597000                       # number of ReadReq miss ticks (Tick)
system.cpu.dcache.ReadReq.missLatency::total   1980597000                       # number of ReadReq miss ticks (Tick)
system.cpu.dcache.ReadReq.accesses::cpu.data      6474626                       # number of ReadReq accesses(hits+misses) (Count)
system.cpu.dcache.ReadReq.accesses::total      6474626                       # number of ReadReq accesses(hits+misses) (Count)
system.cpu.dcache.ReadReq.missRate::cpu.data     0.017362                       # miss rate for ReadReq accesses (Ratio)
system.cpu.dcache.ReadReq.missRate::total     0.017362                       # miss rate for ReadReq accesses (Ratio)
system.cpu.dcache.ReadReq.avgMissLatency::cpu.data 17619.088709                       # average ReadReq miss latency ((Tick/Count))
system.cpu.dcache.ReadReq.avgMissLatency::total 17619.088709                       # average ReadReq miss latency ((Tick/Count))
system.cpu.dcache.ReadReq.mshrHits::cpu.data        42006                       # number of ReadReq MSHR hits (Count)
system.cpu.dcache.ReadReq.mshrHits::total        42006                       # number of ReadReq MSHR hits (Count)
system.cpu.dcache.ReadReq.mshrMisses::cpu.data        70406                       # number of ReadReq MSHR misses (Count)
system.cpu.dcache.ReadReq.mshrMisses::total        70406                       # number of ReadReq MSHR misses (Count)
system.cpu.dcache.ReadReq.mshrMissLatency::cpu.data   1051856000                       # number of ReadReq MSHR miss ticks (Tick)
system.cpu.dcache.ReadReq.mshrMissLatency::total   1051856000                       # number of ReadReq MSHR miss ticks (Tick)
system.cpu.dcache.ReadReq.mshrMissRate::cpu.data     0.010874                       # mshr miss rate for ReadReq accesses (Ratio)
system.cpu.dcache.ReadReq.mshrMissRate::total     0.010874                       # mshr miss rate for ReadReq accesses (Ratio)
system.cpu.dcache.ReadReq.avgMshrMissLatency::cpu.data 14939.863080                       # average ReadReq mshr miss latency ((Tick/Count))
system.cpu.dcache.ReadReq.avgMshrMissLatency::total 14939.863080                       # average ReadReq mshr miss latency ((Tick/Count))
system.cpu.dcache.WriteReq.hits::cpu.data      3187114                       # number of WriteReq hits (Count)
system.cpu.dcache.WriteReq.hits::total        3187114                       # number of WriteReq hits (Count)
system.cpu.dcache.WriteReq.misses::cpu.data        19187                       # number of WriteReq misses (Count)
system.cpu.dcache.WriteReq.misses::total        19187                       # number of WriteReq misses (Count)
system.cpu.dcache.WriteReq.missLatency::cpu.data    375809997                       # number of WriteReq miss ticks (Tick)
system.cpu.dcache.WriteReq.missLatency::total    375809997                       # number of WriteReq miss ticks (Tick)
system.cpu.dcache.WriteReq.accesses::cpu.data      3206301                       # number of WriteReq accesses(hits+misses) (Count)
system.cpu.dcache.WriteReq.accesses::total      3206301                       # number of WriteReq accesses(hits+misses) (Count)
system.cpu.dcache.WriteReq.missRate::cpu.data     0.005984                       # miss rate for WriteReq accesses (Ratio)
system.cpu.dcache.WriteReq.missRate::total     0.005984                       # miss rate for WriteReq accesses (Ratio)
system.cpu.dcache.WriteReq.avgMissLatency::cpu.data 19586.699171                       # average WriteReq miss latency ((Tick/Count))
system.cpu.dcache.WriteReq.avgMissLatency::total 19586.699171                       # average WriteReq miss latency ((Tick/Count))
system.cpu.dcache.WriteReq.mshrHits::cpu.data           41                       # number of WriteReq MSHR hits (Count)
system.cpu.dcache.WriteReq.mshrHits::total           41                       # number of WriteReq MSHR hits (Count)
system.cpu.dcache.WriteReq.mshrMisses::cpu.data        19146                       # number of WriteReq MSHR misses (Count)
system.cpu.dcache.WriteReq.mshrMisses::total        19146                       # number of WriteReq MSHR misses (Count)
system.cpu.dcache.WriteReq.mshrMissLatency::cpu.data    355294497                       # number of WriteReq MSHR miss ticks (Tick)
system.cpu.dcache.WriteReq.mshrMissLatency::total    355294497                       # number of WriteReq MSHR miss ticks (Tick)
system.cpu.dcache.WriteReq.mshrMissRate::cpu.data     0.005971                       # mshr miss rate for WriteReq accesses (Ratio)
system.cpu.dcache.WriteReq.mshrMissRate::total     0.005971                       # mshr miss rate for WriteReq accesses (Ratio)
system.cpu.dcache.WriteReq.avgMshrMissLatency::cpu.data 18557.113601                       # average WriteReq mshr miss latency ((Tick/Count))
system.cpu.dcache.WriteReq.avgMshrMissLatency::total 18557.113601                       # average WriteReq mshr miss latency ((Tick/Count))
system.cpu.dcache.power_state.pwrStateResidencyTicks::UNDEFINED  20052399500                       # Cumulative time (in ticks) in various power states (Tick)
system.cpu.dcache.tags.tagsInUse            63.991005                       # Average ticks per tags in use ((Tick/Count))
system.cpu.dcache.tags.totalRefs              9638880                       # Total number of references to valid blocks. (Count)
system.cpu.dcache.tags.sampledRefs              89552                       # Sample count of references to valid blocks. (Count)
system.cpu.dcache.tags.avgRefs             107.634447                       # Average number of references to valid blocks. ((Count/Count))
system.cpu.dcache.tags.warmupTick            11284500                       # The tick when the warmup percentage was hit. (Tick)
system.cpu.dcache.tags.occupancies::cpu.data    63.991005                       # Average occupied blocks per tick, per requestor ((Count/Tick))
system.cpu.dcache.tags.avgOccs::cpu.data     0.999859                       # Average percentage of cache occupancy ((Ratio/Tick))
system.cpu.dcache.tags.avgOccs::total        0.999859                       # Average percentage of cache occupancy ((Ratio/Tick))
system.cpu.dcache.tags.occupanciesTaskId::1024           64                       # Occupied blocks per task id (Count)
system.cpu.dcache.tags.ageTaskId_1024::0           46                       # Occupied blocks per task id, per block age (Count)
system.cpu.dcache.tags.ageTaskId_1024::1            2                       # Occupied blocks per task id, per block age (Count)
system.cpu.dcache.tags.ageTaskId_1024::2           12                       # Occupied blocks per task id, per block age (Count)
system.cpu.dcache.tags.ageTaskId_1024::3            4                       # Occupied blocks per task id, per block age (Count)
system.cpu.dcache.tags.ratioOccsTaskId::1024            1                       # Ratio of occupied blocks and all blocks, per task id (Ratio)
system.cpu.dcache.tags.tagAccesses           19451406                       # Number of tag accesses (Count)
system.cpu.dcache.tags.dataAccesses          19451406                       # Number of data accesses (Count)
system.cpu.dcache.tags.power_state.pwrStateResidencyTicks::UNDEFINED  20052399500                       # Cumulative time (in ticks) in various power states (Tick)
system.cpu.decode.idleCycles                 26066650                       # Number of cycles decode is idle (Cycle)
system.cpu.decode.blockedCycles               4208412                       # Number of cycles decode is blocked (Cycle)
system.cpu.decode.runCycles                   6604242                       # Number of cycles decode is running (Cycle)
system.cpu.decode.unblockCycles                901959                       # Number of cycles decode is unblocking (Cycle)
system.cpu.decode.squashCycles                 212611                       # Number of cycles decode is squashing (Cycle)
system.cpu.decode.branchResolved              2428359                       # Number of times decode resolved a branch (Count)
system.cpu.decode.branchMispred                 53588                       # Number of times decode detected a branch misprediction (Count)
system.cpu.decode.decodedInsts               48217492                       # Number of instructions handled by decode (Count)
system.cpu.decode.squashedInsts                143837                       # Number of squashed instructions handled by decode (Count)
system.cpu.fetch.icacheStallCycles           27448771                       # Number of cycles fetch is stalled on an Icache miss (Cycle)
system.cpu.fetch.insts                       29833426                       # Number of instructions fetch has processed (Count)
system.cpu.fetch.branches                     4950726                       # Number of branches that fetch encountered (Count)
system.cpu.fetch.predictedBranches            3158218                       # Number of branches that fetch has predicted taken (Count)
system.cpu.fetch.cycles                      10276309                       # Number of cycles fetch has run and was not squashing or blocked (Cycle)
system.cpu.fetch.squashCycles                  532386                       # Number of cycles fetch has spent squashing (Cycle)
system.cpu.fetch.miscStallCycles                  326                       # Number of cycles fetch has spent waiting on interrupts, or bad addresses, or out of MSHRs (Cycle)
system.cpu.fetch.pendingTrapStallCycles          2260                       # Number of stall cycles due to pending traps (Cycle)
system.cpu.fetch.icacheWaitRetryStallCycles           15                       # Number of stall cycles due to full MSHR (Cycle)
system.cpu.fetch.cacheLines                   4158661                       # Number of cache lines fetched (Count)
system.cpu.fetch.icacheSquashes                121424                       # Number of outstanding Icache misses that were squashed (Count)
system.cpu.fetch.nisnDist::samples           37993874                       # Number of instructions fetched each cycle (Total) (Count)
system.cpu.fetch.nisnDist::mean              1.385976                       # Number of instructions fetched each cycle (Total) (Count)
system.cpu.fetch.nisnDist::stdev             2.801761                       # Number of instructions fetched each cycle (Total) (Count)
system.cpu.fetch.nisnDist::underflows               0      0.00%      0.00% # Number of instructions fetched each cycle (Total) (Count)
system.cpu.fetch.nisnDist::0                 29404872     77.39%     77.39% # Number of instructions fetched each cycle (Total) (Count)
system.cpu.fetch.nisnDist::1                   630698      1.66%     79.05% # Number of instructions fetched each cycle (Total) (Count)
system.cpu.fetch.nisnDist::2                   338103      0.89%     79.94% # Number of instructions fetched each cycle (Total) (Count)
system.cpu.fetch.nisnDist::3                   717568      1.89%     81.83% # Number of instructions fetched each cycle (Total) (Count)
system.cpu.fetch.nisnDist::4                   570245      1.50%     83.33% # Number of instructions fetched each cycle (Total) (Count)
system.cpu.fetch.nisnDist::5                   481750      1.27%     84.60% # Number of instructions fetched each cycle (Total) (Count)
system.cpu.fetch.nisnDist::6                   809020      2.13%     86.73% # Number of instructions fetched each cycle (Total) (Count)
system.cpu.fetch.nisnDist::7                   677792      1.78%     88.51% # Number of instructions fetched each cycle (Total) (Count)
system.cpu.fetch.nisnDist::8                  4363826     11.49%    100.00% # Number of instructions fetched each cycle (Total) (Count)
system.cpu.fetch.nisnDist::overflows                0      0.00%    100.00% # Number of instructions fetched each cycle (Total) (Count)
system.cpu.fetch.nisnDist::min_value                0                       # Number of instructions fetched each cycle (Total) (Count)
system.cpu.fetch.nisnDist::max_value                8                       # Number of instructions fetched each cycle (Total) (Count)
system.cpu.fetch.nisnDist::total             37993874                       # Number of instructions fetched each cycle (Total) (Count)
system.cpu.fetch.branchRate                  0.123445                       # Number of branch fetches per cycle (Ratio)
system.cpu.fetch.rate                        0.743887                       # Number of inst fetches per cycle ((Count/Cycle))
system.cpu.icache.demandHits::cpu.inst        3032940                       # number of demand (read+write) hits (Count)
system.cpu.icache.demandHits::total           3032940                       # number of demand (read+write) hits (Count)
system.cpu.icache.overallHits::cpu.inst       3032940                       # number of overall hits (Count)
system.cpu.icache.overallHits::total          3032940                       # number of overall hits (Count)
system.cpu.icache.demandMisses::cpu.inst      1125721                       # number of demand (read+write) misses (Count)
system.cpu.icache.demandMisses::total         1125721                       # number of demand (read+write) misses (Count)
system.cpu.icache.overallMisses::cpu.inst      1125721                       # number of overall misses (Count)
system.cpu.icache.overallMisses::total        1125721                       # number of overall misses (Count)
system.cpu.icache.demandMissLatency::cpu.inst  14468134000                       # number of demand (read+write) miss ticks (Tick)
system.cpu.icache.demandMissLatency::total  14468134000                       # number of demand (read+write) miss ticks (Tick)
system.cpu.icache.overallMissLatency::cpu.inst  14468134000                       # number of overall miss ticks (Tick)
system.cpu.icache.overallMissLatency::total  14468134000                       # number of overall miss ticks (Tick)
system.cpu.icache.demandAccesses::cpu.inst      4158661                       # number of demand (read+write) accesses (Count)
system.cpu.icache.demandAccesses::total       4158661                       # number of demand (read+write) accesses (Count)
system.cpu.icache.overallAccesses::cpu.inst      4158661                       # number of overall (read+write) accesses (Count)
system.cpu.icache.overallAccesses::total      4158661                       # number of overall (read+write) accesses (Count)
system.cpu.icache.demandMissRate::cpu.inst     0.270693                       # miss rate for demand accesses (Ratio)
system.cpu.icache.demandMissRate::total      0.270693                       # miss rate for demand accesses (Ratio)
system.cpu.icache.overallMissRate::cpu.inst     0.270693                       # miss rate for overall accesses (Ratio)
system.cpu.icache.overallMissRate::total     0.270693                       # miss rate for overall accesses (Ratio)
system.cpu.icache.demandAvgMissLatency::cpu.inst 12852.326642                       # average overall miss latency in ticks ((Tick/Count))
system.cpu.icache.demandAvgMissLatency::total 12852.326642                       # average overall miss latency in ticks ((Tick/Count))
system.cpu.icache.overallAvgMissLatency::cpu.inst 12852.326642                       # average overall miss latency ((Tick/Count))
system.cpu.icache.overallAvgMissLatency::total 12852.326642                       # average overall miss latency ((Tick/Count))
system.cpu.icache.blockedCycles::no_mshrs          191                       # number of cycles access was blocked (Cycle)
system.cpu.icache.blockedCycles::no_targets            0                       # number of cycles access was blocked (Cycle)
system.cpu.icache.blockedCauses::no_mshrs            3                       # number of times access was blocked (Count)
system.cpu.icache.blockedCauses::no_targets            0                       # number of times access was blocked (Count)
system.cpu.icache.avgBlocked::no_mshrs      63.666667                       # average number of cycles each access was blocked ((Cycle/Count))
system.cpu.icache.avgBlocked::no_targets          nan                       # average number of cycles each access was blocked ((Cycle/Count))
system.cpu.icache.demandMshrHits::cpu.inst        29082                       # number of demand (read+write) MSHR hits (Count)
system.cpu.icache.demandMshrHits::total         29082                       # number of demand (read+write) MSHR hits (Count)
system.cpu.icache.overallMshrHits::cpu.inst        29082                       # number of overall MSHR hits (Count)
system.cpu.icache.overallMshrHits::total        29082                       # number of overall MSHR hits (Count)
system.cpu.icache.demandMshrMisses::cpu.inst      1096639                       # number of demand (read+write) MSHR misses (Count)
system.cpu.icache.demandMshrMisses::total      1096639                       # number of demand (read+write) MSHR misses (Count)
system.cpu.icache.overallMshrMisses::cpu.inst      1096639                       # number of overall MSHR misses (Count)
system.cpu.icache.overallMshrMisses::total      1096639                       # number of overall MSHR misses (Count)
system.cpu.icache.demandMshrMissLatency::cpu.inst  13229812500                       # number of demand (read+write) MSHR miss ticks (Tick)
system.cpu.icache.demandMshrMissLatency::total  13229812500                       # number of demand (read+write) MSHR miss ticks (Tick)
system.cpu.icache.overallMshrMissLatency::cpu.inst  13229812500                       # number of overall MSHR miss ticks (Tick)
system.cpu.icache.overallMshrMissLatency::total  13229812500                       # number of overall MSHR miss ticks (Tick)
system.cpu.icache.demandMshrMissRate::cpu.inst     0.263700                       # mshr miss ratio for demand accesses (Ratio)
system.cpu.icache.demandMshrMissRate::total     0.263700                       # mshr miss ratio for demand accesses (Ratio)
system.cpu.icache.overallMshrMissRate::cpu.inst     0.263700                       # mshr miss ratio for overall accesses (Ratio)
system.cpu.icache.overallMshrMissRate::total     0.263700                       # mshr miss ratio for overall accesses (Ratio)
system.cpu.icache.demandAvgMshrMissLatency::cpu.inst 12063.963164                       # average overall mshr miss latency ((Tick/Count))
system.cpu.icache.demandAvgMshrMissLatency::total 12063.963164                       # average overall mshr miss latency ((Tick/Count))
system.cpu.icache.overallAvgMshrMissLatency::cpu.inst 12063.963164                       # average overall mshr miss latency ((Tick/Count))
system.cpu.icache.overallAvgMshrMissLatency::total 12063.963164                       # average overall mshr miss latency ((Tick/Count))
system.cpu.icache.replacements                1096574                       # number of replacements (Count)
system.cpu.icache.ReadReq.hits::cpu.inst      3032940                       # number of ReadReq hits (Count)
system.cpu.icache.ReadReq.hits::total         3032940                       # number of ReadReq hits (Count)
system.cpu.icache.ReadReq.misses::cpu.inst      1125721                       # number of ReadReq misses (Count)
system.cpu.icache.ReadReq.misses::total       1125721                       # number of ReadReq misses (Count)
system.cpu.icache.ReadReq.missLatency::cpu.inst  14468134000                       # number of ReadReq miss ticks (Tick)
system.cpu.icache.ReadReq.missLatency::total  14468134000                       # number of ReadReq miss ticks (Tick)
system.cpu.icache.ReadReq.accesses::cpu.inst      4158661                       # number of ReadReq accesses(hits+misses) (Count)
system.cpu.icache.ReadReq.accesses::total      4158661                       # number of ReadReq accesses(hits+misses) (Count)
system.cpu.icache.ReadReq.missRate::cpu.inst     0.270693                       # miss rate for ReadReq accesses (Ratio)
system.cpu.icache.ReadReq.missRate::total     0.270693                       # miss rate for ReadReq accesses (Ratio)
system.cpu.icache.ReadReq.avgMissLatency::cpu.inst 12852.326642                       # average ReadReq miss latency ((Tick/Count))
system.cpu.icache.ReadReq.avgMissLatency::total 12852.326642                       # average ReadReq miss latency ((Tick/Count))
system.cpu.icache.ReadReq.mshrHits::cpu.inst        29082                       # number of ReadReq MSHR hits (Count)
system.cpu.icache.ReadReq.mshrHits::total        29082                       # number of ReadReq MSHR hits (Count)
system.cpu.icache.ReadReq.mshrMisses::cpu.inst      1096639                       # number of ReadReq MSHR misses (Count)
system.cpu.icache.ReadReq.mshrMisses::total      1096639                       # number of ReadReq MSHR misses (Count)
system.cpu.icache.ReadReq.mshrMissLatency::cpu.inst  13229812500                       # number of ReadReq MSHR miss ticks (Tick)
system.cpu.icache.ReadReq.mshrMissLatency::total  13229812500                       # number of ReadReq MSHR miss ticks (Tick)
system.cpu.icache.ReadReq.mshrMissRate::cpu.inst     0.263700                       # mshr miss rate for ReadReq accesses (Ratio)
system.cpu.icache.ReadReq.mshrMissRate::total     0.263700                       # mshr miss rate for ReadReq accesses (Ratio)
system.cpu.icache.ReadReq.avgMshrMissLatency::cpu.inst 12063.963164                       # average ReadReq mshr miss latency ((Tick/Count))
system.cpu.icache.ReadReq.avgMshrMissLatency::total 12063.963164                       # average ReadReq mshr miss latency ((Tick/Count))
system.cpu.icache.power_state.pwrStateResidencyTicks::UNDEFINED  20052399500                       # Cumulative time (in ticks) in various power states (Tick)
system.cpu.icache.tags.tagsInUse            63.988906                       # Average ticks per tags in use ((Tick/Count))
system.cpu.icache.tags.totalRefs              4129578                       # Total number of references to valid blocks. (Count)
system.cpu.icache.tags.sampledRefs            1096638                       # Sample count of references to valid blocks. (Count)
system.cpu.icache.tags.avgRefs               3.765671                       # Average number of references to valid blocks. ((Count/Count))
system.cpu.icache.tags.warmupTick             7042000                       # The tick when the warmup percentage was hit. (Tick)
system.cpu.icache.tags.occupancies::cpu.inst    63.988906                       # Average occupied blocks per tick, per requestor ((Count/Tick))
system.cpu.icache.tags.avgOccs::cpu.inst     0.999827                       # Average percentage of cache occupancy ((Ratio/Tick))
system.cpu.icache.tags.avgOccs::total        0.999827                       # Average percentage of cache occupancy ((Ratio/Tick))
system.cpu.icache.tags.occupanciesTaskId::1024           64                       # Occupied blocks per task id (Count)
system.cpu.icache.tags.ageTaskId_1024::0           57                       # Occupied blocks per task id, per block age (Count)
system.cpu.icache.tags.ageTaskId_1024::1            1                       # Occupied blocks per task id, per block age (Count)
system.cpu.icache.tags.ageTaskId_1024::3            2                       # Occupied blocks per task id, per block age (Count)
system.cpu.icache.tags.ageTaskId_1024::4            4                       # Occupied blocks per task id, per block age (Count)
system.cpu.icache.tags.ratioOccsTaskId::1024            1                       # Ratio of occupied blocks and all blocks, per task id (Ratio)
system.cpu.icache.tags.tagAccesses            9413960                       # Number of tag accesses (Count)
system.cpu.icache.tags.dataAccesses           9413960                       # Number of data accesses (Count)
system.cpu.icache.tags.power_state.pwrStateResidencyTicks::UNDEFINED  20052399500                       # Cumulative time (in ticks) in various power states (Tick)
system.cpu.iew.idleCycles                           0                       # Number of cycles IEW is idle (Cycle)
system.cpu.iew.squashCycles                    212611                       # Number of cycles IEW is squashing (Cycle)
system.cpu.iew.blockCycles                     722643                       # Number of cycles IEW is blocking (Cycle)
system.cpu.iew.unblockCycles                      656                       # Number of cycles IEW is unblocking (Cycle)
system.cpu.iew.dispatchedInsts               46617178                       # Number of instructions dispatched to IQ (Count)
system.cpu.iew.dispSquashedInsts                 2324                       # Number of squashed instructions skipped by dispatch (Count)
system.cpu.iew.dispLoadInsts                  8882077                       # Number of dispatched load instructions (Count)
system.cpu.iew.dispStoreInsts                 3705335                       # Number of dispatched store instructions (Count)
system.cpu.iew.dispNonSpecInsts                  6466                       # Number of dispatched non-speculative instructions (Count)
system.cpu.iew.iqFullEvents                         0                       # Number of times the IQ has become full, causing a stall (Count)
system.cpu.iew.lsqFullEvents                      655                       # Number of times the LSQ has become full, causing a stall (Count)
system.cpu.iew.memOrderViolationEvents            562                       # Number of memory order violations (Count)
system.cpu.iew.predictedTakenIncorrect         107435                       # Number of branches that were predicted taken incorrectly (Count)
system.cpu.iew.predictedNotTakenIncorrect        97369                       # Number of branches that were predicted not taken incorrectly (Count)
system.cpu.iew.branchMispredicts               204804                       # Number of branch mispredicts detected at execute (Count)
system.cpu.iew.instsToCommit                 44264554                       # Cumulative count of insts sent to commit (Count)
system.cpu.iew.writebackCount                44122533                       # Cumulative count of insts written-back (Count)
system.cpu.iew.producerInst                  32185319                       # Number of instructions producing a value (Count)
system.cpu.iew.consumerInst                  46855434                       # Number of instructions consuming a value (Count)
system.cpu.iew.wbRate                        1.100181                       # Insts written-back per cycle ((Count/Cycle))
system.cpu.iew.wbFanout                      0.686907                       # Average fanout of values written-back ((Count/Count))
system.cpu.interrupts.clk_domain.clock           8000                       # Clock period in ticks (Tick)
system.cpu.lsq0.forwLoads                     1897949                       # Number of loads that had data forwarded from stores (Count)
system.cpu.lsq0.squashedLoads                 2103924                       # Number of loads squashed (Count)
system.cpu.lsq0.ignoredResponses                16492                       # Number of memory responses ignored because the instruction is squashed (Count)
system.cpu.lsq0.memOrderViolation                 562                       # Number of memory ordering violations (Count)
system.cpu.lsq0.squashedStores                 499036                       # Number of stores squashed (Count)
system.cpu.lsq0.rescheduledLoads                  415                       # Number of loads that were rescheduled (Count)
system.cpu.lsq0.blockedByCache                    279                       # Number of times an access to memory failed due to the cache being blocked (Count)
system.cpu.lsq0.loadToUse::samples            6778153                       # Distribution of cycle latency between the first time a load is issued and its completion (Unspecified)
system.cpu.lsq0.loadToUse::mean              3.461378                       # Distribution of cycle latency between the first time a load is issued and its completion (Unspecified)
system.cpu.lsq0.loadToUse::stdev             6.066920                       # Distribution of cycle latency between the first time a load is issued and its completion (Unspecified)
system.cpu.lsq0.loadToUse::0-9                6683003     98.60%     98.60% # Distribution of cycle latency between the first time a load is issued and its completion (Unspecified)
[...]
system.mem_ctrls.dram.numReads::cpu.inst         1084                       # Number of read requests responded to by this memory (Count)
system.mem_ctrls.dram.numReads::cpu.data         5039                       # Number of read requests responded to by this memory (Count)
system.mem_ctrls.dram.numReads::total            6123                       # Number of read requests responded to by this memory (Count)
system.mem_ctrls.dram.numWrites::writebacks         3434                       # Number of write requests responded to by this memory (Count)
system.mem_ctrls.dram.numWrites::total           3434                       # Number of write requests responded to by this memory (Count)
system.mem_ctrls.dram.bwRead::cpu.inst        3459736                       # Total read bandwidth from this memory ((Byte/Second))
system.mem_ctrls.dram.bwRead::cpu.data       16082664                       # Total read bandwidth from this memory ((Byte/Second))
system.mem_ctrls.dram.bwRead::total          19542399                       # Total read bandwidth from this memory ((Byte/Second))
system.mem_ctrls.dram.bwInstRead::cpu.inst      3459736                       # Instruction read bandwidth from this memory ((Byte/Second))
system.mem_ctrls.dram.bwInstRead::total       3459736                       # Instruction read bandwidth from this memory ((Byte/Second))
system.mem_ctrls.dram.bwWrite::writebacks     10960085                       # Write bandwidth from this memory ((Byte/Second))
system.mem_ctrls.dram.bwWrite::total         10960085                       # Write bandwidth from this memory ((Byte/Second))
system.mem_ctrls.dram.bwTotal::writebacks     10960085                       # Total bandwidth to/from this memory ((Byte/Second))
system.mem_ctrls.dram.bwTotal::cpu.inst       3459736                       # Total bandwidth to/from this memory ((Byte/Second))
system.mem_ctrls.dram.bwTotal::cpu.data      16082664                       # Total bandwidth to/from this memory ((Byte/Second))
system.mem_ctrls.dram.bwTotal::total         30502484                       # Total bandwidth to/from this memory ((Byte/Second))
system.mem_ctrls.dram.readBursts                 6031                       # Number of DRAM read bursts (Count)
system.mem_ctrls.dram.writeBursts                3403                       # Number of DRAM write bursts (Count)
system.mem_ctrls.dram.perBankRdBursts::0          344                       # Per bank write bursts (Count)
system.mem_ctrls.dram.perBankRdBursts::1          343                       # Per bank write bursts (Count)
system.mem_ctrls.dram.perBankRdBursts::2          325                       # Per bank write bursts (Count)
system.mem_ctrls.dram.perBankRdBursts::3          212                       # Per bank write bursts (Count)
system.mem_ctrls.dram.perBankRdBursts::4          155                       # Per bank write bursts (Count)
system.mem_ctrls.dram.perBankRdBursts::5          164                       # Per bank write bursts (Count)
system.mem_ctrls.dram.perBankRdBursts::6          148                       # Per bank write bursts (Count)
system.mem_ctrls.dram.perBankRdBursts::7          128                       # Per bank write bursts (Count)
system.mem_ctrls.dram.perBankRdBursts::8          776                       # Per bank write bursts (Count)
system.mem_ctrls.dram.perBankRdBursts::9          755                       # Per bank write bursts (Count)
system.mem_ctrls.dram.perBankRdBursts::10          877                       # Per bank write bursts (Count)
system.mem_ctrls.dram.perBankRdBursts::11          727                       # Per bank write bursts (Count)
system.mem_ctrls.dram.perBankRdBursts::12          634                       # Per bank write bursts (Count)
system.mem_ctrls.dram.perBankRdBursts::13          101                       # Per bank write bursts (Count)
system.mem_ctrls.dram.perBankRdBursts::14          144                       # Per bank write bursts (Count)
system.mem_ctrls.dram.perBankRdBursts::15          198                       # Per bank write bursts (Count)
system.mem_ctrls.dram.perBankWrBursts::0           81                       # Per bank write bursts (Count)
system.mem_ctrls.dram.perBankWrBursts::1           69                       # Per bank write bursts (Count)
system.mem_ctrls.dram.perBankWrBursts::2          104                       # Per bank write bursts (Count)
system.mem_ctrls.dram.perBankWrBursts::3           88                       # Per bank write bursts (Count)
system.mem_ctrls.dram.perBankWrBursts::4            0                       # Per bank write bursts (Count)
system.mem_ctrls.dram.perBankWrBursts::5            0                       # Per bank write bursts (Count)
system.mem_ctrls.dram.perBankWrBursts::6            2                       # Per bank write bursts (Count)
system.mem_ctrls.dram.perBankWrBursts::7            0                       # Per bank write bursts (Count)
system.mem_ctrls.dram.perBankWrBursts::8          682                       # Per bank write bursts (Count)
system.mem_ctrls.dram.perBankWrBursts::9          681                       # Per bank write bursts (Count)
system.mem_ctrls.dram.perBankWrBursts::10          674                       # Per bank write bursts (Count)
system.mem_ctrls.dram.perBankWrBursts::11          478                       # Per bank write bursts (Count)
system.mem_ctrls.dram.perBankWrBursts::12          444                       # Per bank write bursts (Count)
system.mem_ctrls.dram.perBankWrBursts::13           43                       # Per bank write bursts (Count)
system.mem_ctrls.dram.perBankWrBursts::14            3                       # Per bank write bursts (Count)
system.mem_ctrls.dram.perBankWrBursts::15           54                       # Per bank write bursts (Count)
system.mem_ctrls.dram.totQLat                58602500                       # Total ticks spent queuing (Tick)
system.mem_ctrls.dram.totBusLat              30155000                       # Total ticks spent in databus transfers (Tick)
system.mem_ctrls.dram.totMemAccLat          171683750                       # Total ticks spent from burst creation until serviced by the DRAM (Tick)
system.mem_ctrls.dram.avgQLat                 9716.88                       # Average queueing delay per DRAM burst ((Tick/Count))
system.mem_ctrls.dram.avgBusLat               5000.00                       # Average bus latency per DRAM burst ((Tick/Count))
system.mem_ctrls.dram.avgMemAccLat           28466.88                       # Average memory access latency per DRAM burst ((Tick/Count))
system.mem_ctrls.dram.readRowHits                5109                       # Number of row buffer hits during reads (Count)
system.mem_ctrls.dram.writeRowHits               3077                       # Number of row buffer hits during writes (Count)
system.mem_ctrls.dram.readRowHitRate            84.71                       # Row buffer hit rate for reads (Ratio)
system.mem_ctrls.dram.writeRowHitRate           90.42                       # Row buffer hit rate for writes (Ratio)
system.mem_ctrls.dram.bytesPerActivate::samples         1238                       # Bytes accessed per row activation (Byte)
system.mem_ctrls.dram.bytesPerActivate::mean   485.738288                       # Bytes accessed per row activation (Byte)
system.mem_ctrls.dram.bytesPerActivate::gmean   299.098163                       # Bytes accessed per row activation (Byte)
system.mem_ctrls.dram.bytesPerActivate::stdev   394.914875                       # Bytes accessed per row activation (Byte)
system.mem_ctrls.dram.bytesPerActivate::0-127          290     23.42%     23.42% # Bytes accessed per row activation (Byte)
system.mem_ctrls.dram.bytesPerActivate::128-255          216     17.45%     40.87% # Bytes accessed per row activation (Byte)
system.mem_ctrls.dram.bytesPerActivate::256-383          126     10.18%     51.05% # Bytes accessed per row activation (Byte)
system.mem_ctrls.dram.bytesPerActivate::384-511           71      5.74%     56.79% # Bytes accessed per row activation (Byte)
system.mem_ctrls.dram.bytesPerActivate::512-639           68      5.49%     62.28% # Bytes accessed per row activation (Byte)
system.mem_ctrls.dram.bytesPerActivate::640-767           54      4.36%     66.64% # Bytes accessed per row activation (Byte)
system.mem_ctrls.dram.bytesPerActivate::768-895           37      2.99%     69.63% # Bytes accessed per row activation (Byte)
system.mem_ctrls.dram.bytesPerActivate::896-1023           37      2.99%     72.62% # Bytes accessed per row activation (Byte)
system.mem_ctrls.dram.bytesPerActivate::1024-1151          339     27.38%    100.00% # Bytes accessed per row activation (Byte)
system.mem_ctrls.dram.bytesPerActivate::total         1238                       # Bytes accessed per row activation (Byte)
system.mem_ctrls.dram.bytesRead                385984                       # Total bytes read (Byte)
system.mem_ctrls.dram.bytesWritten             217792                       # Total bytes written (Byte)
system.mem_ctrls.dram.avgRdBW               19.248769                       # Average DRAM read bandwidth in MiBytes/s ((Byte/Second))
system.mem_ctrls.dram.avgWrBW               10.861144                       # Average DRAM write bandwidth in MiBytes/s ((Byte/Second))
system.mem_ctrls.dram.peakBW                 12800.00                       # Theoretical peak bandwidth in MiByte/s ((Byte/Second))
system.mem_ctrls.dram.busUtil                    0.24                       # Data bus utilization in percentage (Ratio)
system.mem_ctrls.dram.busUtilRead                0.15                       # Data bus utilization in percentage for reads (Ratio)
system.mem_ctrls.dram.busUtilWrite               0.08                       # Data bus utilization in percentage for writes (Ratio)
system.mem_ctrls.dram.pageHitRate               86.77                       # Row buffer hit rate, read and write combined (Ratio)
system.mem_ctrls.dram.power_state.pwrStateResidencyTicks::UNDEFINED  20052399500                       # Cumulative time (in ticks) in various power states (Tick)
system.mem_ctrls.dram.rank0.actEnergy         3077340                       # Energy for activate commands per rank (pJ) (Joule)
system.mem_ctrls.dram.rank0.preEnergy         1616670                       # Energy for precharge commands per rank (pJ) (Joule)
system.mem_ctrls.dram.rank0.readEnergy       12987660                       # Energy for read commands per rank (pJ) (Joule)
system.mem_ctrls.dram.rank0.writeEnergy       1795680                       # Energy for write commands per rank (pJ) (Joule)
system.mem_ctrls.dram.rank0.refreshEnergy 1582698000.000000                       # Energy for refresh commands per rank (pJ) (Joule)
system.mem_ctrls.dram.rank0.actBackEnergy    454784760                       # Energy for active background per rank (pJ) (Joule)
system.mem_ctrls.dram.rank0.preBackEnergy   7317144960                       # Energy for precharge background per rank (pJ) (Joule)
system.mem_ctrls.dram.rank0.actPowerDownEnergy            0                       # Energy for active power-down per rank (pJ) (Joule)
system.mem_ctrls.dram.rank0.prePowerDownEnergy            0                       # Energy for precharge power-down per rank (pJ) (Joule)
system.mem_ctrls.dram.rank0.selfRefreshEnergy            0                       # Energy for self refresh per rank (pJ) (Joule)
system.mem_ctrls.dram.rank0.totalEnergy    9374105070                       # Total energy per rank (pJ) (Joule)
system.mem_ctrls.dram.rank0.averagePower   467.480466                       # Core power per rank (mW) (Watt)
system.mem_ctrls.dram.rank0.totalIdleTime            0                       # Total Idle time Per DRAM Rank (Tick)
system.mem_ctrls.dram.rank0.pwrStateTime::IDLE  19018489500                       # Time in different power states (Tick)
system.mem_ctrls.dram.rank0.pwrStateTime::REF    669500000                       # Time in different power states (Tick)
system.mem_ctrls.dram.rank0.pwrStateTime::SREF            0                       # Time in different power states (Tick)
system.mem_ctrls.dram.rank0.pwrStateTime::PRE_PDN            0                       # Time in different power states (Tick)
system.mem_ctrls.dram.rank0.pwrStateTime::ACT    364410000                       # Time in different power states (Tick)
system.mem_ctrls.dram.rank0.pwrStateTime::ACT_PDN            0                       # Time in different power states (Tick)
system.mem_ctrls.dram.rank1.actEnergy         5833380                       # Energy for activate commands per rank (pJ) (Joule)
system.mem_ctrls.dram.rank1.preEnergy         3081540                       # Energy for precharge commands per rank (pJ) (Joule)
system.mem_ctrls.dram.rank1.readEnergy       30073680                       # Energy for read commands per rank (pJ) (Joule)
system.mem_ctrls.dram.rank1.writeEnergy      15941880                       # Energy for write commands per rank (pJ) (Joule)
system.mem_ctrls.dram.rank1.refreshEnergy 1582698000.000000                       # Energy for refresh commands per rank (pJ) (Joule)
system.mem_ctrls.dram.rank1.actBackEnergy    708093900                       # Energy for active background per rank (pJ) (Joule)
system.mem_ctrls.dram.rank1.preBackEnergy   7103832000                       # Energy for precharge background per rank (pJ) (Joule)
system.mem_ctrls.dram.rank1.actPowerDownEnergy            0                       # Energy for active power-down per rank (pJ) (Joule)
system.mem_ctrls.dram.rank1.prePowerDownEnergy            0                       # Energy for precharge power-down per rank (pJ) (Joule)
system.mem_ctrls.dram.rank1.selfRefreshEnergy            0                       # Energy for self refresh per rank (pJ) (Joule)
system.mem_ctrls.dram.rank1.totalEnergy    9449554380                       # Total energy per rank (pJ) (Joule)
system.mem_ctrls.dram.rank1.averagePower   471.243074                       # Core power per rank (mW) (Watt)
system.mem_ctrls.dram.rank1.totalIdleTime            0                       # Total Idle time Per DRAM Rank (Tick)
system.mem_ctrls.dram.rank1.pwrStateTime::IDLE  18461753750                       # Time in different power states (Tick)
system.mem_ctrls.dram.rank1.pwrStateTime::REF    669500000                       # Time in different power states (Tick)
system.mem_ctrls.dram.rank1.pwrStateTime::SREF            0                       # Time in different power states (Tick)
system.mem_ctrls.dram.rank1.pwrStateTime::PRE_PDN            0                       # Time in different power states (Tick)
system.mem_ctrls.dram.rank1.pwrStateTime::ACT    921145750                       # Time in different power states (Tick)
system.mem_ctrls.dram.rank1.pwrStateTime::ACT_PDN            0                       # Time in different power states (Tick)
system.mem_ctrls.power_state.pwrStateResidencyTicks::UNDEFINED  20052399500                       # Cumulative time (in ticks) in various power states (Tick)
system.membus.transDist::ReadResp                4307                       # Transaction distribution (Count)
system.membus.transDist::WritebackDirty          3434                       # Transaction distribution (Count)
system.membus.transDist::CleanEvict              2171                       # Transaction distribution (Count)
system.membus.transDist::ReadExReq               1816                       # Transaction distribution (Count)
system.membus.transDist::ReadExResp              1816                       # Transaction distribution (Count)
system.membus.transDist::ReadSharedReq           4307                       # Transaction distribution (Count)
system.membus.pktCount_system.l2cache.mem_side_port::system.mem_ctrls.port        17851                       # Packet count per connected requestor and responder (Count)
system.membus.pktCount_system.l2cache.mem_side_port::total        17851                       # Packet count per connected requestor and responder (Count)
system.membus.pktCount::total                   17851                       # Packet count per connected requestor and responder (Count)
system.membus.pktSize_system.l2cache.mem_side_port::system.mem_ctrls.port       611648                       # Cumulative packet size per connected requestor and responder (Byte)
system.membus.pktSize_system.l2cache.mem_side_port::total       611648                       # Cumulative packet size per connected requestor and responder (Byte)
system.membus.pktSize::total                   611648                       # Cumulative packet size per connected requestor and responder (Byte)
system.membus.snoops                                0                       # Total snoops (Count)
system.membus.snoopTraffic                          0                       # Total snoop traffic (Byte)
system.membus.snoopFanout::samples               6123                       # Request fanout histogram (Count)
system.membus.snoopFanout::mean                     0                       # Request fanout histogram (Count)
system.membus.snoopFanout::stdev                    0                       # Request fanout histogram (Count)
system.membus.snoopFanout::underflows               0      0.00%      0.00% # Request fanout histogram (Count)
system.membus.snoopFanout::0                     6123    100.00%    100.00% # Request fanout histogram (Count)
system.membus.snoopFanout::1                        0      0.00%    100.00% # Request fanout histogram (Count)
system.membus.snoopFanout::overflows                0      0.00%    100.00% # Request fanout histogram (Count)
system.membus.snoopFanout::min_value                0                       # Request fanout histogram (Count)
system.membus.snoopFanout::max_value                0                       # Request fanout histogram (Count)
system.membus.snoopFanout::total                 6123                       # Request fanout histogram (Count)
system.membus.power_state.pwrStateResidencyTicks::UNDEFINED  20052399500                       # Cumulative time (in ticks) in various power states (Tick)
system.membus.reqLayer2.occupancy            12732000                       # Layer occupancy (ticks) (Tick)
system.membus.reqLayer2.utilization               0.0                       # Layer utilization (Ratio)
system.membus.respLayer1.occupancy           16624250                       # Layer occupancy (ticks) (Tick)
system.membus.respLayer1.utilization              0.0                       # Layer utilization (Ratio)
system.membus.snoop_filter.totRequests          11728                       # Total number of requests made to the snoop filter. (Count)
system.membus.snoop_filter.hitSingleRequests         5605                       # Number of requests hitting in the snoop filter with a single holder of the requested data. (Count)
system.membus.snoop_filter.hitMultiRequests            0                       # Number of requests hitting in the snoop filter with multiple (>1) holders of the requested data. (Count)
system.membus.snoop_filter.totSnoops                0                       # Total number of snoops made to the snoop filter. (Count)
system.membus.snoop_filter.hitSingleSnoops            0                       # Number of snoops hitting in the snoop filter with a single holder of the requested data. (Count)
system.membus.snoop_filter.hitMultiSnoops            0                       # Number of snoops hitting in the snoop filter with multiple (>1) holders of the requested data. (Count)
system.workload.inst.arm                            0                       # number of arm instructions executed (Count)
system.workload.inst.quiesce                        0                       # number of quiesce instructions executed (Count)

---------- End Simulation Statistics   ----------
