gem5 Simulator System.  https://www.gem5.org
gem5 is copyrighted software; use the --copyright option for details.

gem5 version 22.0.0.2
gem5 compiled Oct 18 2022 00:41:42
gem5 started Oct 30 2023 19:27:12
gem5 executing on e5-cse-135-02.cse.psu.edu, pid 76129
command line: /home/other/CSE530-FA2022/gem5/build_a4/build/X86/gem5.opt --outdir=r5 --redirect-stdout --redirect-stderr /home/grads/ipm5198/hw4/cse530_a4/cse530_a4_sys_config.py --cse530-core-config=r5 --binfile=/home/grads/ipm5198/hw4/Quicksort --l1i_size 4kB --l1d_size 4kB --l2_size 32kB

Global frequency set at 1000000000000 ticks per second
Beginning simulation!
2
4
5
6
3
9
8
11
10
7
14
17
16
21
22
23
19
18
15
25
24
26
28
30
32
34
33
38
37
35
31
40
42
41
44
45
43
39
29
49
48
51
53
52
50
57
55
58
54
59
64
63
65
61
60
47
67
69
71
72
76
75
74
70
77
68
80
83
82
79
78
66
27
86
87
84
90
93
91
96
98
102
100
103
99
97
94
88
107
106
112
111
109
108
115
117
120
119
122
121
118
116
124
126
128
127
125
130
129
123
113
133
134
132
138
137
141
140
143
142
146
145
144
139
135
148
151
154
153
152
149
147
156
159
161
164
162
160
158
157
165
168
172
171
176
175
177
174
169
167
155
131
104
179
181
180
185
184
186
187
183
189
192
191
194
197
199
198
196
203
202
201
200
205
208
207
210
212
213
211
209
206
215
214
204
195
193
188
220
219
217
216
225
224
227
226
222
221
231
230
229
228
178
233
232
12
235
237
238
240
241
243
242
239
245
248
246
249
251
252
250
253
244
236
254
256
258
257
260
259
255
264
263
265
268
267
266
272
276
275
274
271
278
277
270
269
284
282
287
289
288
286
281
291
290
294
295
293
296
292
297
280
300
299
303
301
306
305
311
310
308
307
304
312
315
317
318
316
314
320
321
324
323
322
327
326
331
332
329
335
337
339
341
343
342
340
345
344
348
347
346
351
353
354
352
349
338
357
358
362
360
359
364
363
365
367
368
371
372
369
366
355
336
333
374
377
375
379
378
381
382
386
384
380
373
325
319
313
298
261
234
388
389
391
390
395
397
396
393
387
399
403
402
400
408
407
412
411
413
410
405
415
418
417
414
420
421
423
424
426
425
422
419
429
432
431
433
430
435
437
436
441
440
442
439
434
444
446
445
443
427
404
448
449
452
453
451
456
455
454
450
447
458
460
463
462
459
465
466
468
467
464
457
471
473
477
476
475
479
478
474
482
481
480
472
484
485
487
489
488
486
483
470
469
398
492
495
494
496
498
499
497
500
491
502
504
506
505
508
507
503
510
509
501
514
515
513
517
516
519
520
521
524
525
522
528
527
530
529
526
532
534
533
537
540
539
538
543
545
547
546
548
544
542
535
549
550
531
518
553
557
555
554
552
559
558
562
561
564
567
566
565
570
573
572
569
568
576
578
580
583
582
581
579
584
586
585
577
575
563
590
589
591
594
597
596
593
599
602
601
605
607
609
608
606
604
611
613
615
614
612
617
619
620
618
622
621
624
627
626
623
616
610
629
628
598
588
631
635
634
639
638
636
640
632
642
644
643
649
648
647
646
651
650
641
630
587
560
655
654
659
661
660
657
664
667
666
669
672
671
668
663
662
652
551
674
677
676
680
679
678
681
684
687
686
688
685
690
693
692
694
697
696
700
701
704
705
706
707
703
698
711
710
713
712
715
717
716
714
718
721
719
709
695
722
689
725
727
726
728
729
731
734
733
730
736
735
739
737
723
682
741
743
744
742
746
745
748
749
747
752
755
756
760
759
758
754
753
751
763
765
764
762
761
769
770
771
768
775
774
773
772
777
778
779
783
782
781
786
788
787
789
785
780
793
792
791
790
776
767
740
797
800
798
795
794
673
512
802
806
805
803
807
809
811
810
808
813
816
815
819
821
820
825
824
827
826
823
818
817
812
830
829
832
833
835
834
831
837
839
838
840
841
843
842
836
846
845
848
851
850
847
852
857
856
859
863
862
860
858
855
854
844
867
868
865
864
871
874
875
873
877
880
879
876
882
881
886
888
887
885
884
883
890
892
896
894
898
899
897
891
901
900
889
872
905
904
902
869
828
909
908
911
914
913
910
917
919
920
918
923
921
915
928
927
925
934
933
931
930
924
937
940
939
942
941
936
944
948
947
949
950
946
945
943
935
952
956
955
954
953
951
958
962
961
960
959
963
957
965
968
967
970
971
974
972
969
964
977
980
981
979
982
976
985
986
984
988
987
989
983
993
992
996
994
999
1000
998
997
1002
1006
1005
1003
1009
1012
1013
1011
1008
1015
1019
1018
1017
1016
1014
1007
1001
990
1023
1024
1028
1026
1031
1032
1034
1033
1029
1022
1021
1037
1036
1040
1038
1041
1045
1049
1048
1047
1044
1043
1035
1020
1052
1053
1051
1056
1055
1057
1059
1058
1054
1061
1063
1065
1064
1068
1071
1070
1067
1062
1060
1050
975
906
801
1073
1075
1074
1077
1078
1079
1081
1082
1085
1086
1084
1089
1087
1093
1096
1095
1094
1091
1097
1090
1083
1080
1076
1072
511
490
1100
1102
1104
1103
1101
1108
1106
1110
1109
1112
1114
1113
1116
1118
1117
1122
1121
1120
1119
1115
1111
1105
1125
1126
1129
1128
1131
1130
1133
1136
1135
1132
1139
1138
1141
1140
1137
1143
1144
1146
1148
1147
1149
1154
1153
1159
1158
1157
1156
1152
1151
1150
1161
1164
1168
1166
1163
1172
1171
1170
1169
1175
1177
1176
1174
1173
1178
1182
1181
1180
1179
1162
1185
1184
1188
1187
1192
1191
1189
1194
1193
1195
1186
1199
1198
1197
1196
1203
1204
1205
1207
1206
1201
1210
1209
1208
1200
1183
1160
1145
1142
1214
1215
1212
1211
1217
1220
1219
1222
1224
1227
1226
1230
1229
1232
1231
1228
1225
1223
1236
1239
1238
1235
1234
1242
1240
1233
1244
1245
1246
1248
1247
1250
1249
1252
1255
1256
1254
1251
1259
1260
1263
1261
1266
1268
1267
1264
1257
1243
1272
1271
1273
1275
1277
1276
1278
1281
1280
1284
1283
1285
1286
1282
1287
1279
1290
1292
1291
1288
1294
1298
1297
1299
1295
1301
1303
1302
1304
1306
1305
1300
1308
1309
1311
1313
1314
1312
1310
1317
1316
1315
1318
1307
1293
1274
1270
1320
1321
1322
1324
1323
1325
1328
1331
1330
1329
1333
1335
1334
1336
1332
1338
1340
1343
1344
1342
1341
1339
1337
1326
1346
1348
1347
1350
1349
1351
1354
1356
1355
1353
1359
1361
1360
1357
1367
1366
1364
1363
1362
1369
1372
1374
1373
1377
1380
1379
1376
1371
1382
1381
1370
1368
1352
1384
1386
1388
1389
1387
1392
1390
1395
1394
1393
1398
1397
1401
1403
1402
1405
1404
1399
1406
1396
1408
1410
1409
1411
1414
1416
1417
1420
1418
1421
1415
1413
1412
1407
1427
1425
1424
1423
1422
1385
1383
1345
1431
1430
1434
1435
1437
1436
1432
1441
1440
1444
1443
1442
1438
1429
1428
1446
1449
1448
1451
1454
1453
1450
1445
1319
1221
1216
1127
1123
1457
1458
1456
1460
1462
1461
1464
1463
1466
1467
1471
1469
1473
1474
1475
1472
1468
1476
1478
1480
1479
1477
1484
1482
1485
1481
1465
1459
1489
1488
1487
1491
1490
1486
1494
1495
1499
1498
1504
1503
1501
1496
1493
1492
1455
1098
1509
1508
1506
1513
1514
1516
1515
1512
1511
1518
1522
1520
1524
1523
1526
1528
1530
1533
1534
1532
1531
1535
1537
1539
1541
1540
1538
1536
1529
1527
1544
1545
1542
1525
1517
1547
1549
1548
1551
1550
1553
1556
1559
1558
1557
1561
1562
1565
1564
1567
1566
1563
1560
1555
1569
1568
1572
1574
1576
1575
1579
1578
1577
1573
1580
1582
1585
1584
1586
1587
1581
1571
1554
1552
1588
1591
1590
1589
1594
1595
1598
1597
1596
1593
1592
1546
1601
1603
1602
1599
1607
1606
1605
1609
1608
1611
1612
1614
1613
1610
1616
1617
1619
1622
1625
1624
1621
1620
1628
1627
1630
1629
1626
1632
1633
1634
1636
1637
1635
1639
1638
1631
1641
1643
1645
1644
1648
1647
1646
1642
1649
1640
1618
1650
1615
1653
1652
1654
1656
1655
1659
1661
1660
1663
1662
1658
1665
1666
1667
1664
1670
1668
1651
1673
1671
1675
1678
1677
1676
1680
1681
1685
1684
1682
1687
1689
1688
1691
1693
1692
1690
1696
1698
1700
1702
1701
1699
1697
1695
1704
1705
1703
1686
1679
1674
1708
1711
1709
1713
1712
1716
1714
1718
1721
1722
1720
1724
1727
1726
1723
1719
1717
1731
1730
1736
1735
1737
1733
1740
1739
1742
1741
1745
1744
1748
1747
1746
1743
1749
1751
1752
1757
1756
1754
1750
1759
1762
1761
1758
1738
1732
1728
1766
1765
1768
1767
1771
1773
1772
1775
1777
1780
1779
1784
1783
1781
1786
1787
1788
1790
1792
1791
1795
1794
1797
1798
1796
1793
1789
1785
1776
1774
1769
1800
1801
1802
1803
1804
1806
1809
1807
1812
1810
1814
1818
1817
1821
1822
1820
1819
1815
1813
1805
1824
1825
1823
1799
1763
1827
1830
1834
1833
1832
1838
1837
1843
1842
1841
1840
1836
1835
1828
1847
1846
1850
1852
1853
1851
1849
1855
1857
1856
1859
1860
1858
1854
1844
1864
1863
1866
1868
1867
1865
1870
1872
1871
1874
1873
1877
1875
1880
1879
1878
1882
1886
1885
1884
1881
1869
1861
1826
1888
1890
1891
1892
1889
1894
1896
1895
1898
1900
1899
1897
1901
1893
1904
1905
1907
1908
1906
1903
1910
1909
1902
1887
1706
1604
1912
1913
1916
1914
1918
1917
1923
1922
1921
1924
1920
1929
1928
1927
1931
1930
1926
1919
1935
1936
1934
1940
1941
1939
1938
1943
1945
1944
1947
1948
1946
1950
1953
1954
1955
1951
1949
1942
1957
1958
1961
1962
1960
1966
1965
1964
1968
1971
1972
1973
1974
1969
1967
1963
1976
1980
1979
1977
1982
1984
1987
1988
1985
1989
1983
1981
1975
1956
1933
1932
1991
1993
1996
1995
1992
2000
2002
2005
2004
2006
2001
1998
2007
1997
1990
1911
1505
2009
2010
2011
2015
2016
2014
2013
2017
2019
2021
2023
2022
2020
2025
2027
2028
2026
2031
2033
2032
2030
2034
2029
2035
2024
2039
2043
2044
2042
2041
2037
2036
2018
2047
2046
2048
2050
2051
2055
2053
2058
2060
2061
2059
2062
2064
2063
2057
2049
2045
2008
2067
2069
2068
2070
2066
2073
2072
2078
2077
2075
2079
2074
2080
2071
2082
2086
2084
2087
2083
2091
2090
2092
2094
2095
2093
2088
2098
2101
2100
2097
2103
2104
2102
2106
2108
2107
2112
2111
2110
2116
2117
2114
2109
2105
2119
2121
2122
2126
2124
2129
2130
2127
2133
2135
2134
2137
2140
2141
2139
2138
2143
2146
2145
2142
2136
2131
2120
2149
2148
2147
2152
2156
2155
2154
2151
2150
2118
2096
2158
2159
2162
2161
2163
2167
2169
2168
2166
2165
2173
2172
2176
2177
2174
2170
2160
2180
2183
2181
2184
2187
2186
2188
2192
2191
2195
2199
2198
2196
2201
2202
2200
2193
2189
2207
2206
2210
2212
2211
2209
2204
2214
2215
2218
2221
2222
2220
2223
2219
2217
2216
2226
2224
2213
2227
2203
2185
2178
2157
2081
2231
2230
2233
2235
2237
2236
2239
2241
2244
2242
2240
2238
2234
2245
2247
2246
2249
2248
2250
2251
2232
2253
2256
2255
2252
2260
2259
2261
2258
2263
2262
2265
2264
2268
2267
2269
2274
2272
2271
2277
2276
2279
2282
2281
2283
2278
2275
2285
2288
2287
2289
2286
2293
2295
2296
2294
2291
2299
2302
2301
2298
2297
2305
2306
2304
2303
2284
2266
2257
2308
2310
2309
2313
2316
2315
2312
2318
2320
2319
2324
2325
2323
2322
2317
2328
2329
2330
2333
2331
2326
2334
2337
2341
2340
2338
2343
2342
2346
2345
2344
2335
2348
2351
2350
2349
2353
2355
2357
2361
2360
2358
2362
2356
2364
2366
2368
2367
2365
2363
2371
2370
2374
2373
2372
2369
2354
2352
2376
2377
2379
2381
2380
2383
2382
2385
2384
2378
2388
2390
2389
2387
2391
2393
2396
2397
2395
2394
2400
2398
2392
2386
2402
2406
2405
2404
2408
2410
2409
2412
2411
2415
2416
2413
2407
2401
2375
2347
2420
2418
2422
2425
2424
2426
2423
2421
2427
2428
2431
2432
2437
2435
2434
2438
2441
2440
2439
2430
2445
2444
2442
2417
2446
2307
2449
2451
2453
2452
2450
2455
2458
2457
2456
2459
2460
2462
2465
2467
2469
2471
2472
2470
2468
2466
2463
2461
2454
2474
2478
2477
2476
2481
2480
2483
2484
2482
2479
2473
2486
2488
2487
2489
2491
2494
2493
2490
2496
2499
2498
2501
2500
2503
2502
2506
2505
2504
2509
2508
2511
2512
2514
2515
2513
2510
2519
2518
2516
2521
2523
2526
2527
2525
2522
2531
2530
2529
2528
2534
2533
2532
2520
2507
2495
2485
2537
2540
2539
2541
2543
2547
2545
2544
2550
2554
2552
2558
2557
2555
2548
2542
2561
2562
2559
2536
2564
2565
2563
2568
2569
2567
2571
2572
2573
2570
2566
2535
2577
2576
2575
2580
2582
2581
2579
2578
2584
2586
2585
2589
2591
2594
2592
2590
2595
2587
2583
2599
2597
2596
2602
2603
2601
2600
2608
2607
2611
2609
2605
2615
2613
2612
2604
2618
2619
2617
2620
2625
2627
2626
2623
2622
2629
2630
2628
2632
2635
2633
2637
2636
2638
2640
2641
2639
2631
2645
2644
2649
2648
2651
2650
2647
2646
2655
2654
2652
2642
2616
2658
2662
2660
2659
2664
2663
2666
2665
2657
2656
2669
2670
2672
2675
2674
2673
2679
2677
2676
2682
2684
2685
2689
2688
2690
2686
2683
2692
2695
2694
2691
2680
2671
2667
2698
2700
2699
2701
2697
2703
2704
2702
2707
2708
2705
2712
2714
2713
2715
2719
2722
2723
2720
2717
2710
2696
2725
2726
2731
2730
2728
2734
2733
2735
2739
2740
2738
2737
2732
2743
2742
2744
2745
2749
2748
2747
2746
2741
2753
2751
2754
2757
2756
2762
2763
2761
2760
2765
2764
2759
2767
2766
2758
2769
2771
2774
2773
2776
2779
2777
2775
2772
2770
2781
2780
2768
2755
2784
2787
2786
2789
2788
2783
2782
2792
2791
2794
2797
2796
2798
2793
2801
2800
2803
2802
2799
2807
2810
2809
2813
2812
2814
2815
2811
2808
2817
2816
2820
2819
2818
2822
2825
2824
2821
2828
2827
2831
2830
2832
2829
2826
2836
2835
2837
2834
2833
2806
2805
2842
2841
2843
2839
2845
2848
2847
2850
2849
2856
2855
2859
2857
2853
2852
2863
2862
2861
2864
2866
2869
2868
2871
2870
2873
2872
2865
2875
2876
2880
2883
2882
2879
2878
2877
2874
2860
2844
2885
2887
2886
2884
2838
2804
2790
2890
2891
2893
2892
2895
2897
2898
2896
2900
2899
2894
2903
2905
2908
2911
2909
2906
2904
2913
2912
2902
2889
2915
2914
2917
2919
2918
2921
2920
2922
2926
2929
2928
2925
2924
2933
2932
2937
2935
2934
2941
2940
2945
2944
2943
2939
2931
2949
2948
2946
2930
2951
2952
2950
2954
2955
2959
2958
2957
2953
2923
2916
2963
2964
2962
2966
2969
2970
2968
2967
2974
2977
2978
2976
2972
2979
2981
2984
2983
2980
2965
2961
2986
2989
2987
2991
2994
2993
2996
2995
2990
2985
2960
2888
2750
2998
3000
3002
3001
3004
3003
2999
3006
3007
3010
3009
3008
3005
3012
3015
3013
3017
3019
3022
3023
3021
3024
3020
3026
3025
3018
3016
3028
3031
3029
3033
3034
3035
3036
3032
3027
3011
2997
2724
2574
2447
2228
2065
3038
3042
3041
3039
3044
3045
3046
3049
3048
3053
3052
3054
3051
3047
3056
3059
3060
3058
3055
3043
3062
3063
3061
3067
3066
3068
3065
3064
3071
3072
3074
3075
3077
3076
3073
3078
3080
3083
3087
3086
3085
3082
3088
3089
3081
3092
3090
3095
3094
3093
3098
3097
3100
3104
3103
3102
3106
3107
3105
3099
3111
3109
3108
3096
3079
3070
3115
3114
3117
3116
3113
3121
3120
3119
3123
3124
3126
3129
3128
3131
3130
3125
3122
3132
3134
3133
3138
3137
3135
3140
3143
3142
3144
3147
3145
3149
3152
3150
3148
3155
3153
3159
3158
3156
3160
3162
3165
3164
3167
3166
3169
3168
3170
3173
3176
3175
3178
3179
3177
3174
3182
3180
3172
3161
3139
3184
3186
3187
3185
3189
3192
3194
3195
3197
3199
3198
3196
3193
3202
3201
3200
3190
3188
3183
3118
3205
3207
3211
3210
3209
3206
3213
3216
3215
3212
3218
3221
3220
3222
3224
3226
3225
3223
3228
3227
3217
3203
3112
3230
3232
3233
3231
3236
3234
3239
3241
3242
3240
3247
3246
3245
3244
3250
3249
3252
3253
3251
3248
3243
3255
3258
3257
3260
3262
3261
3263
3259
3265
3268
3267
3264
3271
3274
3273
3276
3278
3277
3275
3272
3269
3282
3281
3285
3288
3287
3284
3279
3292
3294
3296
3295
3298
3297
3293
3301
3300
3299
3303
3305
3304
3302
3290
3289
3309
3308
3307
3306
3256
3254
3312
3313
3318
3316
3315
3311
3321
3324
3327
3328
3326
3330
3331
3329
3325
3322
3333
3332
3336
3340
3338
3337
3335
3343
3344
3341
3334
3320
3347
3351
3349
3346
3353
3354
3356
3355
3358
3359
3361
3360
3357
3352
3345
3319
3365
3364
3363
3368
3372
3371
3376
3377
3378
3374
3379
3369
3367
3366
3382
3383
3384
3386
3385
3381
3389
3391
3394
3393
3390
3395
3388
3398
3399
3397
3401
3403
3405
3404
3402
3400
3411
3410
3408
3407
3413
3412
3415
3417
3416
3418
3421
3420
3419
3414
3424
3423
3427
3430
3429
3428
3426
3425
3422
3406
3435
3434
3437
3439
3438
3436
3441
3444
3443
3445
3440
3432
3447
3450
3448
3451
3453
3456
3455
3452
3459
3457
3446
3431
3396
3380
3362
3310
3237
3229
3461
3462
3464
3465
3463
3468
3470
3471
3469
3467
3476
3475
3473
3472
3466
3479
3482
3481
3480
3483
3485
3484
3478
3477
3489
3488
3491
3493
3496
3495
3498
3497
3494
3503
3504
3505
3510
3509
3507
3502
3501
3500
3499
3492
3512
3515
3514
3511
3490
3486
3517
3521
3520
3522
3525
3524
3523
3518
3527
3531
3530
3533
3537
3536
3539
3542
3540
3538
3534
3532
3528
3544
3547
3546
3550
3549
3548
3553
3556
3555
3557
3554
3551
3561
3560
3558
3563
3562
3543
3565
3569
3568
3566
3572
3574
3573
3570
3578
3577
3575
3580
3581
3584
3583
3582
3587
3591
3592
3590
3594
3597
3598
3595
3593
3589
3588
3586
3585
3579
3564
3602
3601
3604
3603
3607
3606
3609
3612
3611
3608
3605
3614
3615
3618
3617
3616
3620
3623
3621
3619
3627
3625
3629
3628
3633
3631
3630
3624
3613
3599
3526
3516
3635
3639
3638
3641
3640
3636
3644
3646
3645
3650
3648
3647
3643
3653
3655
3654
3657
3658
3659
3656
3662
3660
3652
3651
3667
3666
3668
3672
3674
3673
3670
3676
3675
3664
3663
3679
3682
3684
3683
3681
3686
3687
3688
3689
3685
3680
3691
3697
3696
3694
3693
3698
3692
3700
3702
3701
3699
3704
3705
3709
3707
3706
3710
3713
3717
3716
3714
3711
3703
3690
3677
3719
3723
3722
3721
3724
3728
3727
3729
3732
3736
3734
3737
3731
3730
3725
3739
3743
3741
3745
3749
3748
3746
3751
3753
3752
3750
3755
3754
3744
3759
3758
3757
3764
3763
3761
3760
3765
3756
3738
3767
3769
3768
3773
3772
3770
3766
3718
3776
3777
3775
3780
3779
3782
3783
3781
3785
3788
3787
3786
3784
3790
3791
3794
3795
3793
3789
3778
3797
3800
3801
3799
3796
3804
3806
3809
3808
3811
3814
3813
3810
3816
3815
3819
3818
3817
3821
3820
3805
3802
3774
3634
3823
3825
3824
3829
3828
3831
3834
3837
3836
3835
3832
3830
3841
3842
3847
3845
3844
3850
3848
3839
3853
3852
3851
3858
3856
3855
3860
3859
3861
3863
3862
3854
3866
3867
3865
3870
3871
3868
3874
3875
3880
3878
3877
3883
3886
3887
3885
3891
3892
3890
3889
3884
3881
3876
3873
3872
3895
3898
3897
3896
3901
3903
3907
3905
3902
3900
3899
3911
3909
3915
3914
3918
3919
3917
3916
3922
3921
3920
3912
3908
3894
3925
3926
3928
3927
3932
3931
3934
3937
3938
3936
3935
3940
3941
3945
3944
3942
3939
3948
3947
3949
3946
3933
3951
3950
3955
3954
3957
3956
3959
3960
3958
3953
3952
3929
3923
3864
3826
3962
3964
3965
3966
3963
3970
3969
3972
3974
3978
3977
3975
3979
3973
3971
3980
3967
3982
3981
3961
3986
3985
3988
3989
3987
3984
3991
3992
3994
3995
3993
3990
3999
4003
4002
4001
4005
4006
4007
4004
4000
4009
4008
3998
3997
4011
4012
4016
4015
4014
4019
4022
4023
4020
4027
4026
4029
4028
4031
4032
4030
4024
4036
4035
4033
4038
4039
4037
4018
4017
4041
4044
4048
4046
4042
4052
4051
4050
4054
4056
4057
4055
4053
4058
4049
4062
4061
4065
4067
4066
4068
4064
4070
4069
4063
4059
4040
4010
3983
3822
4072
4075
4074
4079
4077
4082
4084
4085
4083
4081
4080
4076
4088
4090
4092
4091
4089
4093
4096
4094
4098
4102
4101
4100
4097
4087
4104
4106
4107
4105
4110
4109
4108
4112
4115
4114
4117
4120
4121
4119
4116
4125
4127
4126
4128
4129
4124
4133
4131
4130
4123
4111
4135
4138
4136
4140
4141
4139
4134
4103
4071
4143
4146
4148
4149
4151
4150
4147
4144
4154
4156
4155
4158
4161
4160
4163
4162
4157
4153
4164
4168
4172
4171
4173
4170
4177
4175
4179
4180
4181
4178
4184
4187
4185
4183
4182
4174
4189
4193
4191
4190
4188
4194
4166
4196
4199
4202
4203
4201
4207
4208
4210
4209
4206
4214
4218
4217
4216
4213
4212
4205
4220
4219
4222
4223
4225
4224
4229
4228
4226
4231
4232
4234
4233
4239
4238
4240
4236
4242
4245
4247
4246
4244
4243
4241
4230
4251
4250
4253
4255
4256
4259
4258
4257
4264
4263
4265
4261
4266
4268
4267
4270
4272
4273
4271
4275
4277
4280
4279
4282
4284
4283
4286
4285
4281
4278
4289
4287
4276
4274
4269
4260
4254
4252
4248
4221
4204
4292
4293
4295
4294
4291
4299
4298
4300
4302
4301
4297
4306
4305
4309
4308
4307
4310
4304
4313
4315
4316
4317
4314
4311
4303
4322
4321
4320
4319
4325
4329
4330
4327
4332
4333
4335
4334
4336
4338
4337
4331
4323
4318
4290
4197
4340
4345
4343
4342
4341
4347
4350
4349
4353
4352
4351
4346
4356
4357
4359
4360
4358
4363
4362
4361
4366
4368
4371
4372
4370
4373
4375
4376
4378
4377
4379
4374
4367
4382
4381
4385
4383
4390
4392
4393
4391
4389
4388
4387
4396
4397
4395
4394
4400
4399
4401
4404
4407
4406
4403
4402
4408
4398
4380
4364
4354
4339
4411
4415
4416
4414
4413
4409
4195
4420
4419
4422
4424
4425
4423
4426
4421
4429
4430
4433
4434
4432
4431
4427
4417
4165
4142
3460
4438
4437
4441
4440
4444
4446
4447
4445
4442
4439
4452
4454
4455
4453
4450
4449
4457
4460
4458
4461
4464
4463
4466
4465
4462
4469
4468
4470
4472
4474
4473
4471
4476
4479
4478
4482
4481
4480
4475
4467
4456
4484
4486
4488
4493
4492
4497
4496
4495
4491
4490
4499
4501
4500
4503
4505
4504
4507
4506
4502
4498
4489
4487
4513
4512
4510
4515
4514
4509
4520
4519
4517
4523
4521
4524
4516
4526
4527
4532
4531
4530
4529
4525
4534
4537
4536
4533
4539
4542
4541
4549
4548
4546
4545
4544
4551
4555
4554
4552
4550
4557
4556
4543
4559
4561
4560
4565
4567
4568
4566
4564
4563
4573
4571
4570
4569
4562
4575
4578
4577
4576
4574
4558
4582
4581
4583
4580
4579
4584
4538
4508
4588
4589
4590
4586
4591
4592
4594
4593
4585
4485
4483
4448
4598
4599
4597
4596
4602
4605
4606
4604
4608
4610
4609
4607
4612
4615
4618
4617
4614
4613
4620
4621
4619
4624
4626
4629
4628
4630
4631
4625
4622
4611
4634
4635
4633
4636
4632
4600
4638
4637
4640
4642
4643
4641
4645
4646
4648
4647
4649
4650
4652
4651
4644
4639
4656
4655
4659
4661
4662
4664
4663
4666
4665
4668
4667
4660
4672
4674
4673
4679
4681
4680
4677
4676
4670
4669
4657
4653
4685
4684
4687
4688
4690
4691
4689
4692
4696
4697
4701
4700
4699
4698
4694
4686
4703
4706
4705
4702
4709
4707
4711
4714
4713
4718
4716
4715
4719
4710
4721
4725
4724
4727
4726
4728
4730
4732
4731
4729
4722
4720
4735
4738
4739
4742
4741
4740
4745
4747
4746
4743
4749
4748
4736
4734
4751
4750
4753
4754
4752
4733
4756
4758
4761
4759
4763
4765
4764
4767
4770
4773
4772
4771
4769
4768
4775
4777
4776
4774
4766
4781
4782
4780
4779
4784
4783
4778
4762
4757
4787
4789
4790
4788
4793
4795
4798
4796
4794
4792
4800
4803
4802
4805
4806
4804
4801
4809
4808
4812
4814
4818
4817
4815
4813
4811
4810
4807
4821
4823
4822
4826
4827
4829
4828
4825
4819
4832
4835
4837
4838
4836
4839
4834
4833
4841
4844
4843
4840
4845
4831
4830
4799
4785
4847
4849
4850
4851
4848
4854
4856
4855
4859
4862
4861
4858
4852
4864
4867
4868
4866
4865
4872
4870
4873
4876
4875
4880
4879
4878
4883
4881
4874
4869
4863
4887
4886
4888
4893
4892
4890
4885
4895
4898
4897
4894
4901
4900
4899
4905
4904
4902
4884
4846
4755
4682
4909
4908
4912
4911
4910
4916
4915
4917
4919
4921
4920
4922
4925
4923
4927
4930
4931
4929
4926
4918
4932
4913
4907
4935
4934
4933
4939
4938
4936
4942
4940
4944
4945
4948
4949
4947
4955
4957
4956
4954
4953
4952
4951
4959
4960
4961
4965
4964
4968
4967
4970
4972
4971
4976
4975
4973
4977
4969
4966
4981
4980
4979
4982
4978
4962
4958
4984
4986
4987
4992
4990
4989
4988
4985
4998
4997
5000
5001
5002
4999
4995
5004
5003
4994
4983
4943
5010
5009
5007
5006
5005
5013
5012
5014
5017
5018
5019
5021
5020
5016
5022
5025
5024
5023
5015
5028
5027
5030
5033
5031
5035
5037
5040
5039
5036
5041
5034
5029
5043
5044
5042
5046
5048
5049
5053
5055
5054
5052
5058
5056
5051
5050
5047
5060
5064
5062
5059
5045
5069
5068
5072
5074
5073
5071
5067
5076
5079
5078
5075
5066
5065
5026
5081
5083
5084
5086
5085
5088
5089
5090
5091
5094
5097
5096
5093
5087
5082
5100
5099
5098
5102
5104
5107
5106
5111
5114
5112
5110
5109
5115
5103
5118
5116
5121
5120
5122
5125
5124
5127
5126
5129
5130
5128
5123
5134
5133
5132
5136
5135
5131
5139
5138
5143
5142
5144
5140
5147
5150
5148
5153
5154
5152
5159
5157
5156
5160
5155
5164
5165
5163
5167
5168
5166
5162
5171
5173
5174
5172
5176
5178
5177
5175
5170
5161
5151
5179
5182
5181
5186
5184
5190
5189
5192
5191
5194
5198
5197
5196
5193
5187
5180
5202
5201
5203
5207
5206
5204
5199
5145
5137
5119
5101
5209
5212
5211
5215
5214
5216
5218
5221
5220
5225
5227
5226
5223
5217
5213
5208
5080
5011
5230
5229
5234
5233
5235
5232
5238
5240
5239
5237
5241
5242
5246
5247
5245
5250
5249
5251
5248
5244
5256
5255
5258
5257
5253
5252
5236
5261
5260
5267
5265
5264
5270
5272
5271
5273
5269
5268
5274
5263
5278
5277
5276
5275
5262
5282
5281
5284
5285
5288
5287
5291
5290
5289
5292
5295
5293
5296
5298
5300
5303
5302
5299
5306
5305
5304
5297
5286
5310
5311
5312
5308
5307
5283
5279
5259
5314
5317
5319
5320
5322
5325
5326
5324
5321
5318
5315
5313
5328
5330
5332
5333
5331
5329
5334
5336
5338
5339
5341
5344
5346
5345
5349
5348
5351
5350
5347
5352
5342
5340
5337
5335
5327
5228
5354
5357
5356
5358
5361
5366
5365
5368
5367
5364
5370
5371
5369
5363
5376
5375
5378
5379
5382
5381
5384
5383
5380
5377
5373
5386
5388
5387
5390
5392
5391
5394
5393
5389
5397
5396
5395
5385
5399
5402
5401
5404
5407
5406
5409
5408
5405
5403
5410
5413
5416
5414
5419
5420
5417
5411
5422
5423
5425
5424
5429
5431
5430
5428
5427
5435
5437
5439
5443
5442
5440
5438
5436
5434
5433
5421
5447
5446
5448
5445
5452
5451
5450
5449
5444
5454
5453
5398
5372
5362
5359
5456
5458
5462
5461
5459
5465
5469
5468
5467
5464
5471
5470
5457
5473
5475
5476
5474
5472
5479
5478
5483
5481
5484
5487
5489
5488
5486
5485
5477
5491
5493
5497
5496
5500
5501
5502
5498
5503
5505
5507
5506
5504
5494
5492
5512
5511
5509
5508
5516
5515
5519
5518
5521
5524
5523
5527
5526
5530
5529
5528
5525
5520
5533
5535
5534
5532
5531
5538
5540
5539
5537
5544
5542
5541
5546
5547
5548
5545
5550
5549
5554
5556
5555
5553
5552
5551
5536
5517
5560
5559
5562
5564
5565
5563
5561
5558
5568
5567
5573
5572
5570
5577
5578
5575
5574
5566
5557
5513
5580
5582
5581
5587
5590
5591
5589
5593
5594
5592
5586
5585
5596
5599
5598
5595
5584
5583
5579
5602
5601
5606
5605
5604
5603
5600
5490
5455
5608
5611
5610
5614
5616
5620
5618
5621
5615
5612
5624
5623
5626
5629
5628
5625
5622
5632
5631
5636
5637
5635
5634
5641
5640
5638
5630
5643
5646
5649
5650
5648
5647
5645
5653
5654
5655
5651
5658
5656
5644
5660
5659
5662
5661
5642
5607
5664
5663
5353
5666
5668
5667
5670
5669
5674
5673
5671
5677
5676
5675
5680
5683
5681
5679
5685
5689
5687
5692
5690
5684
5695
5696
5701
5700
5698
5702
5703
5697
5694
5705
5708
5709
5712
5710
5715
5716
5713
5707
5706
5719
5720
5718
5722
5724
5723
5726
5728
5727
5725
5721
5731
5734
5733
5730
5729
5717
5736
5739
5737
5735
5704
5693
5678
5741
5742
5744
5745
5747
5748
5752
5751
5750
5754
5753
5755
5757
5758
5760
5759
5756
5749
5765
5764
5766
5762
5761
5769
5771
5774
5775
5772
5778
5776
5770
5780
5783
5784
5782
5779
5768
5787
5791
5789
5788
5792
5794
5793
5785
5767
5796
5799
5798
5801
5800
5804
5806
5808
5809
5810
5807
5805
5803
5812
5814
5815
5813
5816
5818
5821
5820
5823
5822
5824
5828
5827
5829
5825
5817
5831
5830
5811
5795
5746
5743
5740
5833
5837
5835
5834
5840
5842
5843
5841
5844
5839
5848
5846
5849
5845
5851
5854
5852
5850
5858
5857
5862
5861
5865
5867
5866
5864
5869
5868
5859
5872
5870
5874
5880
5881
5878
5877
5876
5875
5873
5884
5883
5886
5887
5885
5882
5855
5832
5665
4906
4595
4435
3069
3037
5889
5892
5891
5890
5894
5893
5896
5900
5902
5901
5899
5898
5904
5903
5897
5895
5909
5908
5907
5911
5910
5914
5913
5912
5916
5915
5918
5917
5922
5923
5920
5919
5906
5927
5926
5925
5930
5928
5934
5933
5936
5938
5941
5942
5940
5937
5945
5947
5950
5949
5953
5955
5954
5951
5946
5944
5943
5935
5958
5959
5962
5966
5965
5964
5967
5960
5957
5969
5970
5974
5973
5972
5968
5978
5976
5980
5983
5986
5985
5982
5981
5987
5988
5979
5975
5956
5991
5993
5992
5989
5931
5996
5998
5997
5999
5994
5924
6004
6005
6007
6006
6002
6001
6009
6012
6013
6011
6014
6016
6015
6010
6018
6020
6019
6021
6017
6008
6025
6029
6028
6027
6024
6023
6031
6036
6035
6034
6033
6037
6039
6038
6040
6032
6030
6022
6042
6045
6043
6046
6048
6049
6053
6051
6056
6054
6059
6060
6058
6062
6064
6063
6067
6066
6065
6069
6070
6068
6071
6073
6072
6074
6061
6057
6047
6076
6077
6079
6082
6081
6080
6086
6085
6088
6087
6083
6091
6092
6093
6090
6097
6099
6098
6100
6095
6102
6101
6089
6106
6107
6105
6110
6112
6113
6111
6109
6104
6116
6117
6115
6122
6121
6123
6120
6119
6128
6127
6125
6130
6129
6124
6134
6133
6132
6135
6137
6138
6139
6136
6141
6142
6144
6143
6140
6131
6114
6103
6078
6075
6147
6149
6148
6152
6151
6150
6153
6155
6156
6158
6157
6160
6161
6159
6163
6165
6168
6167
6170
6169
6164
6171
6173
6174
6175
6179
6178
6180
6176
6172
6162
6182
6185
6184
6183
6189
6188
6186
6181
6191
6190
6154
6145
6041
6000
6193
6196
6195
6194
6199
6198
6201
6200
6197
6206
6205
6204
6203
6207
6212
6211
6209
6214
6216
6217
6215
6213
6219
6222
6221
6224
6227
6226
6230
6234
6232
6229
6236
6235
6238
6239
6241
6243
6247
6245
6244
6242
6240
6249
6248
6237
6223
6251
6254
6256
6255
6253
6252
6258
6260
6259
6257
6250
6218
6263
6268
6267
6265
6271
6272
6275
6274
6276
6273
6270
6278
6279
6277
6283
6282
6284
6281
6287
6285
6290
6288
6280
6269
6261
6208
6202
6292
6293
6295
6297
6296
6299
6298
6303
6302
6307
6305
6304
6310
6316
6315
6313
6312
6311
6308
6301
6318
6321
6320
6324
6323
6326
6325
6328
6330
6329
6332
6336
6335
6333
6331
6327
6322
6317
6338
6341
6340
6337
6300
6294
6345
6344
6348
6347
6346
6342
6351
6355
6354
6352
6357
6358
6356
6350
6361
6360
6362
6365
6367
6366
6364
6359
6349
6369
6372
6371
6376
6375
6373
6370
6368
6378
6381
6380
6383
6384
6382
6379
6387
6385
6377
6390
6389
6391
6394
6397
6396
6393
6400
6399
6403
6402
6406
6405
6404
6401
6408
6411
6413
6416
6415
6414
6418
6421
6419
6423
6424
6422
6417
6412
6409
6407
6398
6426
6430
6428
6427
6432
6431
6436
6435
6439
6441
6440
6438
6443
6444
6442
6445
6447
6449
6448
6451
6453
6452
6450
6446
6457
6456
6454
6459
6460
6458
6433
6463
6462
6461
6466
6469
6471
6472
6473
6470
6476
6478
6477
6479
6474
6482
6481
6480
6484
6483
6467
6487
6486
6489
6490
6491
6492
6488
6496
6498
6501
6500
6499
6497
6494
6503
6504
6507
6506
6505
6502
6485
6464
6425
6510
6514
6512
6517
6520
6519
6522
6521
6527
6525
6528
6529
6524
6518
6515
6532
6530
6536
6535
6538
6539
6537
6541
6540
6545
6544
6549
6550
6548
6547
6552
6551
6546
6543
6542
6533
6508
6388
6291
6192
6554
6557
6560
6561
6559
6558
6563
6562
6565
6564
6556
6555
6568
6569
6572
6571
6577
6576
6575
6574
6579
6580
6578
6573
6582
6581
6570
6566
6586
6584
6587
6591
6592
6590
6593
6589
6596
6598
6600
6599
6597
6601
6595
6606
6605
6607
6603
6602
6611
6610
6614
6616
6615
6619
6621
6620
6623
6622
6618
6625
6624
6612
6608
6588
6583
6628
6631
6634
6633
6630
6629
6635
6637
6640
6639
6643
6642
6645
6644
6647
6646
6641
6638
6650
6653
6651
6649
6648
6655
6658
6657
6654
6636
6626
6553
6662
6666
6664
6669
6670
6673
6672
6671
6674
6668
6667
6661
6660
6676
6677
6675
6680
6683
6684
6682
6681
6685
6679
6686
6678
6688
6689
6691
6693
6695
6698
6696
6699
6700
6702
6703
6704
6705
6701
6694
6692
6708
6711
6714
6712
6716
6719
6717
6715
6709
6721
6723
6722
6720
6707
6726
6727
6731
6730
6732
6728
6724
6736
6738
6737
6735
6734
6740
6739
6733
6690
6687
6743
6744
6742
6746
6748
6752
6750
6747
6754
6757
6756
6759
6758
6753
6761
6763
6764
6762
6765
6760
6745
6769
6770
6771
6773
6774
6772
6768
6767
6778
6776
6780
6779
6775
6766
6784
6783
6788
6787
6786
6782
6781
6790
6791
6793
6795
6797
6798
6796
6794
6800
6801
6799
6803
6806
6805
6802
6808
6807
6811
6812
6810
6813
6815
6814
6819
6818
6817
6820
6823
6822
6821
6816
6809
6792
6789
6826
6827
6825
6829
6832
6831
6834
6835
6837
6836
6833
6828
6840
6842
6843
6848
6847
6850
6853
6852
6854
6855
6849
6845
6858
6856
6844
6841
6859
6838
6824
6741
6861
6863
6862
6867
6868
6869
6865
6872
6871
6874
6873
6878
6877
6876
6875
6881
6880
6883
6884
6882
6879
6870
6888
6889
6890
6887
6886
6885
6860
6894
6896
6895
6892
6898
6900
6902
6903
6901
6906
6905
6908
6907
6904
6910
6913
6912
6915
6914
6918
6919
6921
6920
6916
6923
6924
6922
6911
6909
6926
6928
6932
6930
6927
6935
6938
6936
6934
6933
6925
6939
6899
6941
6944
6943
6946
6945
6942
6948
6947
6949
6951
6953
6957
6956
6955
6963
6964
6961
6960
6966
6970
6969
6967
6965
6973
6976
6975
6974
6972
6978
6977
6971
6959
6958
6981
6983
6982
6985
6987
6986
6984
6979
6952
6989
6992
6991
6996
6997
6994
7000
7002
7003
7001
7004
6999
7007
7005
7010
7009
7013
7012
7011
7015
7019
7017
7014
7008
6993
6988
7021
7022
7023
7028
7026
7025
7020
6950
7030
7034
7033
7035
7037
7039
7038
7040
7036
7043
7041
7031
7046
7044
7049
7050
7048
7054
7052
7056
7057
7060
7062
7061
7059
7065
7068
7067
7064
7070
7069
7073
7072
7075
7076
7077
7074
7071
7058
7055
7051
7047
7079
7082
7081
7083
7085
7088
7092
7091
7090
7093
7089
7094
7086
7096
7099
7098
7103
7105
7104
7102
7101
7095
7084
7078
7109
7108
7112
7115
7114
7117
7116
7111
7110
7119
7118
7122
7125
7127
7128
7129
7126
7130
7124
7133
7131
7123
7136
7139
7138
7141
7140
7137
7144
7143
7142
7146
7147
7150
7154
7153
7155
7151
7149
7156
7148
7145
7134
7120
7106
7029
6940
6897
7158
7161
7160
7167
7166
7165
7169
7170
7168
7173
7177
7175
7178
7180
7179
7171
7164
7163
7162
7159
7157
6891
6659
7182
7183
7188
7186
7190
7189
7192
7194
7193
7191
7198
7199
7204
7203
7201
7200
7208
7209
7210
7207
7213
7212
7211
7206
7197
7196
7195
7215
7217
7216
7214
7185
7219
7223
7222
7221
7224
7226
7230
7229
7227
7232
7231
7225
7234
7233
7220
7237
7238
7242
7241
7245
7244
7243
7239
7249
7252
7250
7254
7253
7257
7255
7247
7261
7259
7262
7258
7236
7235
7218
7184
7265
7267
7266
7270
7268
7273
7275
7274
7278
7277
7282
7280
7276
7284
7286
7285
7288
7290
7289
7287
7291
7296
7295
7297
7293
7299
7303
7302
7301
7300
7298
7306
7310
7309
7308
7304
7313
7312
7311
7317
7316
7320
7321
7319
7323
7325
7329
7327
7324
7322
7318
7314
7330
7332
7334
7335
7336
7333
7338
7337
7342
7341
7344
7347
7346
7349
7348
7343
7351
7353
7352
7355
7358
7359
7357
7354
7350
7362
7361
7360
7339
7366
7367
7365
7370
7372
7373
7371
7369
7375
7374
7376
7368
7378
7379
7383
7384
7381
7387
7390
7388
7386
7385
7393
7394
7392
7391
7396
7395
7399
7397
7377
7364
7403
7402
7401
7406
7408
7411
7410
7407
7404
7413
7415
7414
7418
7419
7417
7416
7420
7412
7400
7363
7331
7292
7283
7272
7271
7423
7422
7426
7424
7428
7429
7430
7433
7432
7435
7436
7434
7438
7440
7441
7439
7437
7442
7431
7427
7443
7445
7446
7449
7451
7450
7448
7452
7455
7456
7454
7459
7460
7458
7465
7464
7466
7469
7474
7473
7471
7476
7478
7477
7482
7481
7480
7479
7475
7485
7484
7483
7467
7462
7461
7457
7487
7489
7488
7495
7494
7492
7491
7486
7453
7498
7500
7501
7499
7504
7507
7506
7508
7505
7510
7512
7513
7511
7514
7516
7515
7518
7517
7521
7524
7523
7525
7527
7528
7530
7529
7526
7520
7509
7534
7533
7535
7531
7502
7538
7539
7541
7540
7537
7545
7547
7548
7550
7549
7546
7544
7543
7542
7536
7496
7554
7552
7556
7555
7551
7558
7561
7560
7564
7563
7568
7567
7565
7569
7562
7571
7572
7575
7573
7579
7581
7580
7578
7577
7576
7584
7583
7587
7588
7590
7593
7592
7596
7600
7598
7595
7589
7585
7602
7604
7605
7606
7603
7608
7610
7611
7609
7607
7601
7582
7570
7557
7444
7421
7613
7615
7616
7614
7618
7622
7620
7619
7617
7625
7629
7627
7632
7633
7635
7634
7637
7636
7631
7638
7641
7643
7646
7644
7642
7648
7649
7650
7652
7653
7654
7655
7651
7657
7656
7659
7660
7658
7647
7662
7665
7664
7666
7661
7669
7670
7674
7673
7671
7668
7676
7675
7677
7680
7681
7684
7683
7688
7687
7689
7685
7692
7693
7690
7682
7695
7698
7697
7699
7702
7703
7704
7709
7708
7707
7706
7705
7711
7710
7700
7715
7714
7717
7718
7721
7722
7723
7724
7720
7725
7726
7719
7716
7712
7694
7678
7667
7639
7623
7612
7729
7733
7732
7737
7736
7738
7735
7731
7730
7742
7744
7747
7746
7743
7740
7750
7751
7749
7748
7755
7754
7757
7756
7760
7763
7764
7762
7759
7767
7765
7752
7770
7775
7774
7772
7778
7779
7776
7780
7781
7768
7783
7785
7786
7784
7788
7790
7792
7791
7795
7798
7796
7800
7799
7793
7789
7803
7805
7804
7806
7801
7787
7782
7809
7811
7810
7814
7812
7816
7818
7820
7819
7822
7823
7821
7817
7815
7808
7826
7828
7827
7829
7825
7824
7831
7832
7830
7807
7739
7727
7263
7834
7835
7837
7840
7839
7843
7845
7844
7842
7846
7847
7841
7849
7851
7854
7853
7855
7860
7859
7862
7861
7857
7850
7848
7836
7864
7867
7866
7872
7871
7869
7874
7873
7876
7875
7868
7877
7879
7881
7880
7882
7883
7887
7886
7884
7878
7863
7890
7894
7893
7892
7895
7891
7889
7898
7899
7897
7901
7900
7903
7906
7908
7909
7907
7905
7910
7911
7912
7904
7902
7896
7914
7916
7915
7913
7919
7918
7921
7920
7923
7925
7926
7924
7922
7930
7931
7929
7932
7933
7928
7935
7938
7937
7940
7939
7934
7927
7943
7947
7946
7945
7941
7917
7949
7951
7954
7955
7957
7956
7953
7952
7959
7962
7963
7961
7958
7950
7965
7966
7967
7970
7974
7972
7969
7977
7976
7975
7968
7964
7980
7983
7984
7982
7987
7988
7991
7992
7993
7990
7994
7989
7996
7997
7995
8000
8003
8006
8007
8004
8002
8010
8011
8008
8001
7999
8013
8014
8018
8017
8016
8020
8022
8023
8021
8025
8024
8019
8028
8027
8031
8032
8030
8037
8036
8034
8029
8026
8039
8041
8043
8042
8044
8048
8047
8046
8045
8040
8051
8050
8055
8054
8052
8057
8061
8060
8059
8056
8062
8065
8064
8067
8068
8066
8071
8070
8069
8063
8074
8077
8075
8081
8080
8082
8083
8084
8079
8072
8049
8087
8089
8091
8093
8092
8095
8096
8094
8097
8090
8101
8104
8103
8102
8106
8109
8107
8105
8100
8099
8088
8112
8114
8118
8117
8115
8113
8123
8122
8120
8126
8128
8129
8127
8125
8119
8110
8133
8136
8134
8138
8139
8137
8131
8130
8085
8038
8141
8142
8144
8143
8145
8148
8147
8152
8150
8154
8156
8155
8158
8161
8159
8157
8153
8146
8163
8166
8165
8169
8170
8172
8171
8168
8167
8174
8173
8175
8162
8177
8179
8180
8185
8184
8183
8182
8188
8187
8191
8190
8189
8186
8194
8197
8198
8196
8195
8193
8192
8178
8203
8204
8202
8201
8200
8199
8176
8140
8012
7985
8206
8210
8208
8211
8213
8215
8214
8217
8219
8222
8221
8220
8218
8223
8227
8226
8225
8224
8216
8212
8230
8229
8228
8205
7978
7948
8233
8235
8239
8238
8237
8236
8234
8240
8243
8242
8245
8248
8250
8249
8247
8246
8251
8244
8254
8255
8252
8257
8261
8259
8258
8264
8263
8262
8265
8268
8266
8272
8271
8270
8276
8275
8280
8279
8282
8281
8277
8274
8273
8269
8286
8285
8284
8287
8290
8292
8294
8293
8291
8300
8299
8297
8296
8295
8288
8304
8305
8303
8302
8301
8309
8308
8312
8311
8314
8315
8313
8310
8306
8283
8317
8321
8320
8319
8316
8256
8241
8324
8323
8322
8328
8327
8330
8332
8331
8333
8329
8335
8338
8340
8339
8337
8336
8343
8342
8347
8346
8344
8349
8352
8353
8351
8354
8355
8348
8341
8334
8325
8357
8358
8360
8364
8363
8362
8361
8367
8372
8371
8369
8365
8374
8375
8377
8376
8378
8373
8359
8381
8382
8379
8387
8386
8384
8389
8392
8393
8391
8395
8398
8399
8397
8401
8402
8403
8400
8396
8394
8390
8405
8404
8408
8410
8409
8412
8414
8413
8411
8406
8388
8418
8417
8422
8421
8424
8423
8420
8428
8426
8430
8429
8425
8432
8435
8434
8433
8431
8436
8415
8438
8440
8443
8446
8445
8442
8448
8447
8441
8451
8450
8454
8453
8452
8449
8439
8457
8455
8437
8383
8356
8231
8460
8463
8464
8462
8468
8467
8466
8469
8472
8473
8475
8476
8474
8480
8479
8478
8481
8484
8486
8489
8493
8492
8491
8488
8487
8495
8494
8485
8483
8482
8477
8470
8465
8499
8498
8501
8503
8504
8506
8507
8505
8502
8509
8508
8511
8515
8513
8516
8518
8517
8512
8510
8500
8523
8522
8521
8520
8519
8525
8529
8527
8526
8532
8536
8534
8530
8524
8539
8540
8538
8542
8541
8544
8543
8548
8547
8545
8551
8554
8552
8550
8556
8558
8557
8560
8559
8564
8563
8566
8565
8561
8555
8549
8568
8569
8572
8571
8575
8574
8578
8579
8577
8573
8584
8583
8582
8581
8580
8570
8586
8585
8567
8588
8587
8537
8496
8458
7888
7833
8592
8591
8590
8596
8595
8594
8593
8598
8599
8602
8604
8603
8607
8605
8600
8608
8612
8611
8614
8613
8610
8616
8615
8609
8619
8622
8623
8621
8625
8624
8628
8627
8630
8629
8626
8620
8632
8635
8636
8634
8631
8617
8597
8639
8638
8644
8643
8641
8645
8648
8650
8649
8647
8646
8654
8653
8656
8655
8652
8659
8660
8658
8661
8663
8662
8657
8665
8667
8668
8669
8666
8671
8672
8673
8670
8664
8674
8651
8676
8678
8682
8681
8679
8677
8684
8686
8685
8688
8687
8689
8683
8691
8693
8695
8696
8699
8697
8700
8702
8705
8704
8703
8701
8708
8710
8709
8712
8711
8716
8718
8717
8721
8720
8719
8714
8723
8724
8722
8706
8694
8692
8690
8727
8730
8731
8729
8735
8734
8737
8739
8738
8741
8745
8744
8743
8740
8736
8733
8732
8725
8675
8637
8747
8751
8749
8755
8754
8757
8759
8758
8756
8762
8766
8765
8764
8760
8768
8767
8770
8772
8775
8773
8777
8780
8779
8776
8782
8781
8771
8769
8786
8785
8784
8788
8791
8790
8792
8789
8787
8783
8752
8746
8794
8799
8800
8797
8796
8801
8795
8804
8807
8806
8808
8813
8812
8811
8810
8814
8815
8805
8816
8818
8824
8823
8822
8825
8826
8821
8820
8819
8817
8802
8830
8829
8833
8835
8834
8838
8839
8837
8836
8841
8843
8842
8840
8831
8845
8849
8847
8854
8853
8856
8855
8852
8851
8844
8860
8859
8862
8865
8864
8867
8866
8861
8869
8868
8870
8857
8873
8872
8875
8877
8876
8874
8879
8883
8882
8880
8878
8871
8886
8885
8887
8889
8890
8891
8892
8888
8895
8894
8893
8897
8900
8902
8901
8904
8905
8906
8908
8907
8903
8910
8909
8898
8913
8916
8914
8920
8919
8923
8925
8926
8924
8929
8930
8927
8921
8917
8911
8896
8932
8935
8934
8933
8936
8940
8943
8942
8939
8938
8945
8944
8948
8951
8949
8952
8947
8946
8955
8956
8957
8954
8953
8931
8959
8962
8960
8964
8965
8968
8969
8970
8967
8963
8972
8973
8976
8975
8977
8974
8981
8980
8983
8982
8978
8987
8986
8989
8991
8990
8988
8984
8993
8997
8995
8998
8992
8971
8958
8884
8827
9001
9005
9004
9010
9009
9008
9007
9012
9015
9014
9011
9002
9016
8999
9018
9022
9021
9020
9024
9026
9030
9029
9027
9025
9023
9032
9033
9031
9035
9034
9037
9038
9036
9039
9041
9042
9044
9045
9043
9040
9048
9047
9049
9051
9053
9052
9050
9054
9057
9060
9058
9056
9062
9061
9066
9065
9067
9068
9069
9072
9073
9071
9074
9070
9064
9063
9077
9076
9079
9078
9081
9080
9075
9083
9085
9084
9089
9091
9090
9088
9087
9082
9055
9095
9094
9092
9046
9098
9101
9103
9104
9102
9099
9106
9109
9108
9105
9113
9111
9117
9118
9119
9115
9123
9121
9124
9125
9120
9110
9096
9017
8793
9128
9131
9132
9130
9129
9133
9135
9139
9141
9142
9147
9145
9144
9140
9137
9136
9149
9150
9152
9155
9154
9157
9158
9156
9151
9159
9148
9161
9163
9165
9164
9168
9166
9162
9170
9172
9173
9175
9174
9177
9179
9180
9183
9182
9185
9184
9181
9178
9176
9171
9169
9160
9134
9189
9188
9191
9190
9194
9193
9192
9196
9198
9201
9200
9197
9203
9206
9205
9207
9209
9208
9212
9210
9215
9216
9214
9218
9221
9220
9219
9217
9213
9204
9202
9224
9223
9227
9225
9228
9222
9195
9233
9232
9237
9236
9235
9231
9230
9240
9238
9229
9243
9242
9248
9247
9245
9249
9241
9186
9253
9256
9254
9260
9259
9263
9264
9262
9265
9266
9261
9257
9251
9269
9271
9270
9274
9277
9276
9273
9279
9280
9278
9268
9284
9283
9282
9285
9281
9290
9289
9287
9292
9294
9296
9295
9293
9297
9291
9299
9300
9298
9286
9267
9302
9304
9305
9303
9307
9310
9308
9313
9314
9315
9312
9311
9306
9318
9317
9321
9319
9322
9323
9325
9324
9316
9329
9328
9331
9330
9327
9334
9333
9332
9335
9326
9338
9337
9336
9341
9342
9344
9343
9346
9345
9348
9350
9353
9352
9354
9351
9349
9347
9357
9356
9355
9339
9301
9250
9360
9363
9362
9364
9361
9359
9367
9370
9369
9371
9372
9368
9375
9378
9376
9382
9381
9384
9383
9379
9388
9387
9389
9391
9392
9390
9386
9394
9393
9385
9397
9398
9402
9401
9404
9403
9399
9396
9395
9374
9373
9365
9408
9407
9410
9409
9411
9414
9415
9413
9412
9419
9418
9420
9417
9423
9422
9421
9426
9429
9427
9425
9424
9416
9405
9432
9431
9434
9433
9436
9437
9435
9439
9442
9446
9444
9441
9440
9450
9449
9453
9452
9455
9454
9451
9447
9458
9459
9457
9462
9465
9464
9461
9466
9456
9438
9468
9470
9469
9473
9476
9475
9474
9472
9477
9478
9467
9430
9358
9480
9482
9484
9485
9483
9481
9487
9486
9490
9493
9494
9492
9488
9495
9498
9499
9497
9502
9503
9505
9504
9501
9508
9509
9513
9511
9516
9518
9522
9521
9519
9517
9515
9507
9506
9524
9528
9527
9526
9529
9532
9534
9536
9535
9533
9538
9537
9531
9541
9544
9542
9540
9547
9545
9548
9539
9550
9551
9552
9554
9555
9556
9553
9558
9561
9560
9557
9563
9565
9566
9564
9567
9571
9569
9575
9574
9573
9576
9572
9568
9580
9581
9579
9578
9577
9562
9549
9584
9585
9588
9587
9589
9591
9592
9590
9586
9594
9596
9598
9597
9600
9599
9595
9601
9603
9606
9605
9604
9609
9613
9612
9610
9608
9602
9617
9619
9621
9622
9624
9623
9626
9625
9620
9618
9616
9629
9628
9631
9632
9630
9634
9636
9637
9638
9639
9635
9641
9640
9633
9627
9615
9614
9593
9582
9523
9496
9479
9126
8589
7181
9645
9646
9644
9647
9643
9651
9649
9648
9653
9655
9659
9657
9661
9665
9663
9669
9668
9666
9660
9672
9671
9670
9674
9675
9679
9678
9677
9680
9673
9654
9682
9685
9683
9681
9652
9689
9688
9693
9692
9695
9696
9694
9699
9698
9701
9702
9704
9703
9700
9709
9708
9712
9714
9713
9711
9710
9706
9705
9719
9717
9716
9722
9721
9720
9715
9724
9728
9730
9729
9726
9731
9725
9723
9697
9735
9734
9737
9739
9741
9742
9740
9746
9745
9744
9743
9738
9748
9747
9751
9750
9755
9753
9749
9736
9758
9759
9757
9760
9762
9763
9766
9767
9765
9761
9756
9771
9770
9775
9773
9778
9776
9781
9780
9779
9769
9768
9732
9690
9686
9783
9785
9788
9789
9787
9790
9791
9784
9793
9795
9798
9797
9794
9800
9799
9801
9802
9804
9806
9805
9803
9808
9812
9811
9817
9818
9815
9814
9809
9820
9824
9822
9826
9828
9829
9827
9825
9819
9807
9832
9831
9830
9792
9836
9834
9838
9837
9840
9843
9844
9842
9839
9846
9848
9849
9847
9852
9850
9845
9855
9856
9857
9859
9858
9854
9862
9861
9867
9866
9864
9860
9870
9869
9871
9873
9872
9876
9878
9881
9880
9883
9882
9877
9874
9868
9853
9886
9885
9889
9891
9890
9888
9887
9893
9894
9895
9897
9899
9898
9901
9900
9904
9908
9907
9906
9905
9902
9896
9892
9911
9912
9914
9913
9917
9918
9915
9919
9921
9923
9922
9920
9910
9909
9926
9928
9931
9932
9930
9929
9927
9924
9935
9936
9934
9933
9884
9833
9939
9942
9940
9944
9948
9946
9943
9952
9951
9956
9955
9953
9958
9959
9962
9964
9966
9967
9965
9969
9968
9973
9971
9970
9963
9960
9957
9950
9975
9978
9977
9976
9979
9982
9983
9986
9985
9984
9981
9980
9989
9990
9995
9994
9992
9988
9987
9974
9949
9937
9997
10000
9998
9996
9782
9642
5888
2
4
5
6
3
9
8
11
10
7
14
17
16
21
22
23
19
18
15
25
24
26
28
30
32
34
33
38
37
35
31
40
42
41
44
45
43
39
29
49
48
51
53
52
50
57
55
58
54
59
64
63
65
61
60
47
67
69
71
72
76
75
74
70
77
68
80
83
82
79
78
66
27
86
87
84
90
93
91
96
98
102
100
103
99
97
94
88
107
106
112
111
109
108
115
117
120
119
122
121
118
116
124
126
128
127
125
130
129
123
113
133
134
132
138
137
141
140
143
142
146
145
144
139
135
148
151
154
153
152
149
147
156
159
161
164
162
160
158
157
165
168
172
171
176
175
177
174
169
167
155
131
104
179
181
180
185
184
186
187
183
189
192
191
194
197
199
198
196
203
202
201
200
205
208
207
210
212
213
211
209
206
215
214
204
195
193
188
220
219
217
216
225
224
227
226
222
221
231
230
229
228
178
233
232
12
235
237
238
240
241
243
242
239
245
248
246
249
251
252
250
253
244
236
254
256
258
257
260
259
255
264
263
265
268
267
266
272
276
275
274
271
278
277
270
269
284
282
287
289
288
286
281
291
290
294
295
293
296
292
297
280
300
299
303
301
306
305
311
310
308
307
304
312
315
317
318
316
314
320
321
324
323
322
327
326
331
332
329
335
337
339
341
343
342
340
345
344
348
347
346
351
353
354
352
349
338
357
358
362
360
359
364
363
365
367
368
371
372
369
366
355
336
333
374
377
375
379
378
381
382
386
384
380
373
325
319
313
298
261
234
388
389
391
390
395
397
396
393
387
399
403
402
400
408
407
412
411
413
410
405
415
418
417
414
420
421
423
424
426
425
422
419
429
432
431
433
430
435
437
436
441
440
442
439
434
444
446
445
443
427
404
448
449
452
453
451
456
455
454
450
447
458
460
463
462
459
465
466
468
467
464
457
471
473
477
476
475
479
478
474
482
481
480
472
484
485
487
489
488
486
483
470
469
398
492
495
494
496
498
499
497
500
491
502
504
506
505
508
507
503
510
509
501
514
515
513
517
516
519
520
521
524
525
522
528
527
530
529
526
532
534
533
537
540
539
538
543
545
547
546
548
544
542
535
549
550
531
518
553
557
555
554
552
559
558
562
561
564
567
566
565
570
573
572
569
568
576
578
580
583
582
581
579
584
586
585
577
575
563
590
589
591
594
597
596
593
599
602
601
605
607
609
608
606
604
611
613
615
614
612
617
619
620
618
622
621
624
627
626
623
616
610
629
628
598
588
631
635
634
639
638
636
640
632
642
644
643
649
648
647
646
651
650
641
630
587
560
655
654
659
661
660
657
664
667
666
669
672
671
668
663
662
652
551
674
677
676
680
679
678
681
684
687
686
688
685
690
693
692
694
697
696
700
701
704
705
706
707
703
698
711
710
713
712
715
717
716
714
718
721
719
709
695
722
689
725
727
726
728
729
731
734
733
730
736
735
739
737
723
682
741
743
744
742
746
745
748
749
747
752
755
756
760
759
758
754
753
751
763
765
764
762
761
769
770
771
768
775
774
773
772
777
778
779
783
782
781
786
788
787
789
785
780
793
792
791
790
776
767
740
797
800
798
795
794
673
512
802
806
805
803
807
809
811
810
808
813
816
815
819
821
820
825
824
827
826
823
818
817
812
830
829
832
833
835
834
831
837
839
838
840
841
843
842
836
846
845
848
851
850
847
852
857
856
859
863
862
860
858
855
854
844
867
868
865
864
871
874
875
873
877
880
879
876
882
881
886
888
887
885
884
883
890
892
896
894
898
899
897
891
901
900
889
872
905
904
902
869
828
909
908
911
914
913
910
917
919
920
918
923
921
915
928
927
925
934
933
931
930
924
937
940
939
942
941
936
944
948
947
949
950
946
945
943
935
952
956
955
954
953
951
958
962
961
960
959
963
957
965
968
967
970
971
974
972
969
964
977
980
981
979
982
976
985
986
984
988
987
989
983
993
992
996
994
999
1000
998
997
1002
1006
1005
1003
1009
1012
1013
1011
1008
1015
1019
1018
1017
1016
1014
1007
1001
990
1023
1024
1028
1026
1031
1032
1034
1033
1029
1022
1021
1037
1036
1040
1038
1041
1045
1049
1048
1047
1044
1043
1035
1020
1052
1053
1051
1056
1055
1057
1059
1058
1054
1061
1063
1065
1064
1068
1071
1070
1067
1062
1060
1050
975
906
801
1073
1075
1074
1077
1078
1079
1081
1082
1085
1086
1084
1089
1087
1093
1096
1095
1094
1091
1097
1090
1083
1080
1076
1072
511
490
1100
1102
1104
1103
1101
1108
1106
1110
1109
1112
1114
1113
1116
1118
1117
1122
1121
1120
1119
1115
1111
1105
1125
1126
1129
1128
1131
1130
1133
1136
1135
1132
1139
1138
1141
1140
1137
1143
1144
1146
1148
1147
1149
1154
1153
1159
1158
1157
1156
1152
1151
1150
1161
1164
1168
1166
1163
1172
1171
1170
1169
1175
1177
1176
1174
1173
1178
1182
1181
1180
1179
1162
1185
1184
1188
1187
1192
1191
1189
1194
1193
1195
1186
1199
1198
1197
1196
1203
1204
1205
1207
1206
1201
1210
1209
1208
1200
1183
1160
1145
1142
1214
1215
1212
1211
1217
1220
1219
1222
1224
1227
1226
1230
1229
1232
1231
1228
1225
1223
1236
1239
1238
1235
1234
1242
1240
1233
1244
1245
1246
1248
1247
1250
1249
1252
1255
1256
1254
1251
1259
1260
1263
1261
1266
1268
1267
1264
1257
1243
1272
1271
1273
1275
1277
1276
1278
1281
1280
1284
1283
1285
1286
1282
1287
1279
1290
1292
1291
1288
1294
1298
1297
1299
1295
1301
1303
1302
1304
1306
1305
1300
1308
1309
1311
1313
1314
1312
1310
1317
1316
1315
1318
1307
1293
1274
1270
1320
1321
1322
1324
1323
1325
1328
1331
1330
1329
1333
1335
1334
1336
1332
1338
1340
1343
1344
1342
1341
1339
1337
1326
1346
1348
1347
1350
1349
1351
1354
1356
1355
1353
1359
1361
1360
1357
1367
1366
1364
1363
1362
1369
1372
1374
1373
1377
1380
1379
1376
1371
1382
1381
1370
1368
1352
1384
1386
1388
1389
1387
1392
1390
1395
1394
1393
1398
1397
1401
1403
1402
1405
1404
1399
1406
1396
1408
1410
1409
1411
1414
1416
1417
1420
1418
1421
1415
1413
1412
1407
1427
1425
1424
1423
1422
1385
1383
1345
1431
1430
1434
1435
1437
1436
1432
1441
1440
1444
1443
1442
1438
1429
1428
1446
1449
1448
1451
1454
1453
1450
1445
1319
1221
1216
1127
1123
1457
1458
1456
1460
1462
1461
1464
1463
1466
1467
1471
1469
1473
1474
1475
1472
1468
1476
1478
1480
1479
1477
1484
1482
1485
1481
1465
1459
1489
1488
1487
1491
1490
1486
1494
1495
1499
1498
1504
1503
1501
1496
1493
1492
1455
1098
1509
1508
1506
1513
1514
1516
1515
1512
1511
1518
1522
1520
1524
1523
1526
1528
1530
1533
1534
1532
1531
1535
1537
1539
1541
1540
1538
1536
1529
1527
1544
1545
1542
1525
1517
1547
1549
1548
1551
1550
1553
1556
1559
1558
1557
1561
1562
1565
1564
1567
1566
1563
1560
1555
1569
1568
1572
1574
1576
1575
1579
1578
1577
1573
1580
1582
1585
1584
1586
1587
1581
1571
1554
1552
1588
1591
1590
1589
1594
1595
1598
1597
1596
1593
1592
1546
1601
1603
1602
1599
1607
1606
1605
1609
1608
1611
1612
1614
1613
1610
1616
1617
1619
1622
1625
1624
1621
1620
1628
1627
1630
1629
1626
1632
1633
1634
1636
1637
1635
1639
1638
1631
1641
1643
1645
1644
1648
1647
1646
1642
1649
1640
1618
1650
1615
1653
1652
1654
1656
1655
1659
1661
1660
1663
1662
1658
1665
1666
1667
1664
1670
1668
1651
1673
1671
1675
1678
1677
1676
1680
1681
1685
1684
1682
1687
1689
1688
1691
1693
1692
1690
1696
1698
1700
1702
1701
1699
1697
1695
1704
1705
1703
1686
1679
1674
1708
1711
1709
1713
1712
1716
1714
1718
1721
1722
1720
1724
1727
1726
1723
1719
1717
1731
1730
1736
1735
1737
1733
1740
1739
1742
1741
1745
1744
1748
1747
1746
1743
1749
1751
1752
1757
1756
1754
1750
1759
1762
1761
1758
1738
1732
1728
1766
1765
1768
1767
1771
1773
1772
1775
1777
1780
1779
1784
1783
1781
1786
1787
1788
1790
1792
1791
1795
1794
1797
1798
1796
1793
1789
1785
1776
1774
1769
1800
1801
1802
1803
1804
1806
1809
1807
1812
1810
1814
1818
1817
1821
1822
1820
1819
1815
1813
1805
1824
1825
1823
1799
1763
1827
1830
1834
1833
1832
1838
1837
1843
1842
1841
1840
1836
1835
1828
1847
1846
1850
1852
1853
1851
1849
1855
1857
1856
1859
1860
1858
1854
1844
1864
1863
1866
1868
1867
1865
1870
1872
1871
1874
1873
1877
1875
1880
1879
1878
1882
1886
1885
1884
1881
1869
1861
1826
1888
1890
1891
1892
1889
1894
1896
1895
1898
1900
1899
1897
1901
1893
1904
1905
1907
1908
1906
1903
1910
1909
1902
1887
1706
1604
1912
1913
1916
1914
1918
1917
1923
1922
1921
1924
1920
1929
1928
1927
1931
1930
1926
1919
1935
1936
1934
1940
1941
1939
1938
1943
1945
1944
1947
1948
1946
1950
1953
1954
1955
1951
1949
1942
1957
1958
1961
1962
1960
1966
1965
1964
1968
1971
1972
1973
1974
1969
1967
1963
1976
1980
1979
1977
1982
1984
1987
1988
1985
1989
1983
1981
1975
1956
1933
1932
1991
1993
1996
1995
1992
2000
2002
2005
2004
2006
2001
1998
2007
1997
1990
1911
1505
2009
2010
2011
2015
2016
2014
2013
2017
2019
2021
2023
2022
2020
2025
2027
2028
2026
2031
2033
2032
2030
2034
2029
2035
2024
2039
2043
2044
2042
2041
2037
2036
2018
2047
2046
2048
2050
2051
2055
2053
2058
2060
2061
2059
2062
2064
2063
2057
2049
2045
2008
2067
2069
2068
2070
2066
2073
2072
2078
2077
2075
2079
2074
2080
2071
2082
2086
2084
2087
2083
2091
2090
2092
2094
2095
2093
2088
2098
2101
2100
2097
2103
2104
2102
2106
2108
2107
2112
2111
2110
2116
2117
2114
2109
2105
2119
2121
2122
2126
2124
2129
2130
2127
2133
2135
2134
2137
2140
2141
2139
2138
2143
2146
2145
2142
2136
2131
2120
2149
2148
2147
2152
2156
2155
2154
2151
2150
2118
2096
2158
2159
2162
2161
2163
2167
2169
2168
2166
2165
2173
2172
2176
2177
2174
2170
2160
2180
2183
2181
2184
2187
2186
2188
2192
2191
2195
2199
2198
2196
2201
2202
2200
2193
2189
2207
2206
2210
2212
2211
2209
2204
2214
2215
2218
2221
2222
2220
2223
2219
2217
2216
2226
2224
2213
2227
2203
2185
2178
2157
2081
2231
2230
2233
2235
2237
2236
2239
2241
2244
2242
2240
2238
2234
2245
2247
2246
2249
2248
2250
2251
2232
2253
2256
2255
2252
2260
2259
2261
2258
2263
2262
2265
2264
2268
2267
2269
2274
2272
2271
2277
2276
2279
2282
2281
2283
2278
2275
2285
2288
2287
2289
2286
2293
2295
2296
2294
2291
2299
2302
2301
2298
2297
2305
2306
2304
2303
2284
2266
2257
2308
2310
2309
2313
2316
2315
2312
2318
2320
2319
2324
2325
2323
2322
2317
2328
2329
2330
2333
2331
2326
2334
2337
2341
2340
2338
2343
2342
2346
2345
2344
2335
2348
2351
2350
2349
2353
2355
2357
2361
2360
2358
2362
2356
2364
2366
2368
2367
2365
2363
2371
2370
2374
2373
2372
2369
2354
2352
2376
2377
2379
2381
2380
2383
2382
2385
2384
2378
2388
2390
2389
2387
2391
2393
2396
2397
2395
2394
2400
2398
2392
2386
2402
2406
2405
2404
2408
2410
2409
2412
2411
2415
2416
2413
2407
2401
2375
2347
2420
2418
2422
2425
2424
2426
2423
2421
2427
2428
2431
2432
2437
2435
2434
2438
2441
2440
2439
2430
2445
2444
2442
2417
2446
2307
2449
2451
2453
2452
2450
2455
2458
2457
2456
2459
2460
2462
2465
2467
2469
2471
2472
2470
2468
2466
2463
2461
2454
2474
2478
2477
2476
2481
2480
2483
2484
2482
2479
2473
2486
2488
2487
2489
2491
2494
2493
2490
2496
2499
2498
2501
2500
2503
2502
2506
2505
2504
2509
2508
2511
2512
2514
2515
2513
2510
2519
2518
2516
2521
2523
2526
2527
2525
2522
2531
2530
2529
2528
2534
2533
2532
2520
2507
2495
2485
2537
2540
2539
2541
2543
2547
2545
2544
2550
2554
2552
2558
2557
2555
2548
2542
2561
2562
2559
2536
2564
2565
2563
2568
2569
2567
2571
2572
2573
2570
2566
2535
2577
2576
2575
2580
2582
2581
2579
2578
2584
2586
2585
2589
2591
2594
2592
2590
2595
2587
2583
2599
2597
2596
2602
2603
2601
2600
2608
2607
2611
2609
2605
2615
2613
2612
2604
2618
2619
2617
2620
2625
2627
2626
2623
2622
2629
2630
2628
2632
2635
2633
2637
2636
2638
2640
2641
2639
2631
2645
2644
2649
2648
2651
2650
2647
2646
2655
2654
2652
2642
2616
2658
2662
2660
2659
2664
2663
2666
2665
2657
2656
2669
2670
2672
2675
2674
2673
2679
2677
2676
2682
2684
2685
2689
2688
2690
2686
2683
2692
2695
2694
2691
2680
2671
2667
2698
2700
2699
2701
2697
2703
2704
2702
2707
2708
2705
2712
2714
2713
2715
2719
2722
2723
2720
2717
2710
2696
2725
2726
2731
2730
2728
2734
2733
2735
2739
2740
2738
2737
2732
2743
2742
2744
2745
2749
2748
2747
2746
2741
2753
2751
2754
2757
2756
2762
2763
2761
2760
2765
2764
2759
2767
2766
2758
2769
2771
2774
2773
2776
2779
2777
2775
2772
2770
2781
2780
2768
2755
2784
2787
2786
2789
2788
2783
2782
2792
2791
2794
2797
2796
2798
2793
2801
2800
2803
2802
2799
2807
2810
2809
2813
2812
2814
2815
2811
2808
2817
2816
2820
2819
2818
2822
2825
2824
2821
2828
2827
2831
2830
2832
2829
2826
2836
2835
2837
2834
2833
2806
2805
2842
2841
2843
2839
2845
2848
2847
2850
2849
2856
2855
2859
2857
2853
2852
2863
2862
2861
2864
2866
2869
2868
2871
2870
2873
2872
2865
2875
2876
2880
2883
2882
2879
2878
2877
2874
2860
2844
2885
2887
2886
2884
2838
2804
2790
2890
2891
2893
2892
2895
2897
2898
2896
2900
2899
2894
2903
2905
2908
2911
2909
2906
2904
2913
2912
2902
2889
2915
2914
2917
2919
2918
2921
2920
2922
2926
2929
2928
2925
2924
2933
2932
2937
2935
2934
2941
2940
2945
2944
2943
2939
2931
2949
2948
2946
2930
2951
2952
2950
2954
2955
2959
2958
2957
2953
2923
2916
2963
2964
2962
2966
2969
2970
2968
2967
2974
2977
2978
2976
2972
2979
2981
2984
2983
2980
2965
2961
2986
2989
2987
2991
2994
2993
2996
2995
2990
2985
2960
2888
2750
2998
3000
3002
3001
3004
3003
2999
3006
3007
3010
3009
3008
3005
3012
3015
3013
3017
3019
3022
3023
3021
3024
3020
3026
3025
3018
3016
3028
3031
3029
3033
3034
3035
3036
3032
3027
3011
2997
2724
2574
2447
2228
2065
3038
3042
3041
3039
3044
3045
3046
3049
3048
3053
3052
3054
3051
3047
3056
3059
3060
3058
3055
3043
3062
3063
3061
3067
3066
3068
3065
3064
3071
3072
3074
3075
3077
3076
3073
3078
3080
3083
3087
3086
3085
3082
3088
3089
3081
3092
3090
3095
3094
3093
3098
3097
3100
3104
3103
3102
3106
3107
3105
3099
3111
3109
3108
3096
3079
3070
3115
3114
3117
3116
3113
3121
3120
3119
3123
3124
3126
3129
3128
3131
3130
3125
3122
3132
3134
3133
3138
3137
3135
3140
3143
3142
3144
3147
3145
3149
3152
3150
3148
3155
3153
3159
3158
3156
3160
3162
3165
3164
3167
3166
3169
3168
3170
3173
3176
3175
3178
3179
3177
3174
3182
3180
3172
3161
3139
3184
3186
3187
3185
3189
3192
3194
3195
3197
3199
3198
3196
3193
3202
3201
3200
3190
3188
3183
3118
3205
3207
3211
3210
3209
3206
3213
3216
3215
3212
3218
3221
3220
3222
3224
3226
3225
3223
3228
3227
3217
3203
3112
3230
3232
3233
3231
3236
3234
3239
3241
3242
3240
3247
3246
3245
3244
3250
3249
3252
3253
3251
3248
3243
3255
3258
3257
3260
3262
3261
3263
3259
3265
3268
3267
3264
3271
3274
3273
3276
3278
3277
3275
3272
3269
3282
3281
3285
3288
3287
3284
3279
3292
3294
3296
3295
3298
3297
3293
3301
3300
3299
3303
3305
3304
3302
3290
3289
3309
3308
3307
3306
3256
3254
3312
3313
3318
3316
3315
3311
3321
3324
3327
3328
3326
3330
3331
3329
3325
3322
3333
3332
3336
3340
3338
3337
3335
3343
3344
3341
3334
3320
3347
3351
3349
3346
3353
3354
3356
3355
3358
3359
3361
3360
3357
3352
3345
3319
3365
3364
3363
3368
3372
3371
3376
3377
3378
3374
3379
3369
3367
3366
3382
3383
3384
3386
3385
3381
3389
3391
3394
3393
3390
3395
3388
3398
3399
3397
3401
3403
3405
3404
3402
3400
3411
3410
3408
3407
3413
3412
3415
3417
3416
3418
3421
3420
3419
3414
3424
3423
3427
3430
3429
3428
3426
3425
3422
3406
3435
3434
3437
3439
3438
3436
3441
3444
3443
3445
3440
3432
3447
3450
3448
3451
3453
3456
3455
3452
3459
3457
3446
3431
3396
3380
3362
3310
3237
3229
3461
3462
3464
3465
3463
3468
3470
3471
3469
3467
3476
3475
3473
3472
3466
3479
3482
3481
3480
3483
3485
3484
3478
3477
3489
3488
3491
3493
3496
3495
3498
3497
3494
3503
3504
3505
3510
3509
3507
3502
3501
3500
3499
3492
3512
3515
3514
3511
3490
3486
3517
3521
3520
3522
3525
3524
3523
3518
3527
3531
3530
3533
3537
3536
3539
3542
3540
3538
3534
3532
3528
3544
3547
3546
3550
3549
3548
3553
3556
3555
3557
3554
3551
3561
3560
3558
3563
3562
3543
3565
3569
3568
3566
3572
3574
3573
3570
3578
3577
3575
3580
3581
3584
3583
3582
3587
3591
3592
3590
3594
3597
3598
3595
3593
3589
3588
3586
3585
3579
3564
3602
3601
3604
3603
3607
3606
3609
3612
3611
3608
3605
3614
3615
3618
3617
3616
3620
3623
3621
3619
3627
3625
3629
3628
3633
3631
3630
3624
3613
3599
3526
3516
3635
3639
3638
3641
3640
3636
3644
3646
3645
3650
3648
3647
3643
3653
3655
3654
3657
3658
3659
3656
3662
3660
3652
3651
3667
3666
3668
3672
3674
3673
3670
3676
3675
3664
3663
3679
3682
3684
3683
3681
3686
3687
3688
3689
3685
3680
3691
3697
3696
3694
3693
3698
3692
3700
3702
3701
3699
3704
3705
3709
3707
3706
3710
3713
3717
3716
3714
3711
3703
3690
3677
3719
3723
3722
3721
3724
3728
3727
3729
3732
3736
3734
3737
3731
3730
3725
3739
3743
3741
3745
3749
3748
3746
3751
3753
3752
3750
3755
3754
3744
3759
3758
3757
3764
3763
3761
3760
3765
3756
3738
3767
3769
3768
3773
3772
3770
3766
3718
3776
3777
3775
3780
3779
3782
3783
3781
3785
3788
3787
3786
3784
3790
3791
3794
3795
3793
3789
3778
3797
3800
3801
3799
3796
3804
3806
3809
3808
3811
3814
3813
3810
3816
3815
3819
3818
3817
3821
3820
3805
3802
3774
3634
3823
3825
3824
3829
3828
3831
3834
3837
3836
3835
3832
3830
3841
3842
3847
3845
3844
3850
3848
3839
3853
3852
3851
3858
3856
3855
3860
3859
3861
3863
3862
3854
3866
3867
3865
3870
3871
3868
3874
3875
3880
3878
3877
3883
3886
3887
3885
3891
3892
3890
3889
3884
3881
3876
3873
3872
3895
3898
3897
3896
3901
3903
3907
3905
3902
3900
3899
3911
3909
3915
3914
3918
3919
3917
3916
3922
3921
3920
3912
3908
3894
3925
3926
3928
3927
3932
3931
3934
3937
3938
3936
3935
3940
3941
3945
3944
3942
3939
3948
3947
3949
3946
3933
3951
3950
3955
3954
3957
3956
3959
3960
3958
3953
3952
3929
3923
3864
3826
3962
3964
3965
3966
3963
3970
3969
3972
3974
3978
3977
3975
3979
3973
3971
3980
3967
3982
3981
3961
3986
3985
3988
3989
3987
3984
3991
3992
3994
3995
3993
3990
3999
4003
4002
4001
4005
4006
4007
4004
4000
4009
4008
3998
3997
4011
4012
4016
4015
4014
4019
4022
4023
4020
4027
4026
4029
4028
4031
4032
4030
4024
4036
4035
4033
4038
4039
4037
4018
4017
4041
4044
4048
4046
4042
4052
4051
4050
4054
4056
4057
4055
4053
4058
4049
4062
4061
4065
4067
4066
4068
4064
4070
4069
4063
4059
4040
4010
3983
3822
4072
4075
4074
4079
4077
4082
4084
4085
4083
4081
4080
4076
4088
4090
4092
4091
4089
4093
4096
4094
4098
4102
4101
4100
4097
4087
4104
4106
4107
4105
4110
4109
4108
4112
4115
4114
4117
4120
4121
4119
4116
4125
4127
4126
4128
4129
4124
4133
4131
4130
4123
4111
4135
4138
4136
4140
4141
4139
4134
4103
4071
4143
4146
4148
4149
4151
4150
4147
4144
4154
4156
4155
4158
4161
4160
4163
4162
4157
4153
4164
4168
4172
4171
4173
4170
4177
4175
4179
4180
4181
4178
4184
4187
4185
4183
4182
4174
4189
4193
4191
4190
4188
4194
4166
4196
4199
4202
4203
4201
4207
4208
4210
4209
4206
4214
4218
4217
4216
4213
4212
4205
4220
4219
4222
4223
4225
4224
4229
4228
4226
4231
4232
4234
4233
4239
4238
4240
4236
4242
4245
4247
4246
4244
4243
4241
4230
4251
4250
4253
4255
4256
4259
4258
4257
4264
4263
4265
4261
4266
4268
4267
4270
4272
4273
4271
4275
4277
4280
4279
4282
4284
4283
4286
4285
4281
4278
4289
4287
4276
4274
4269
4260
4254
4252
4248
4221
4204
4292
4293
4295
4294
4291
4299
4298
4300
4302
4301
4297
4306
4305
4309
4308
4307
4310
4304
4313
4315
4316
4317
4314
4311
4303
4322
4321
4320
4319
4325
4329
4330
4327
4332
4333
4335
4334
4336
4338
4337
4331
4323
4318
4290
4197
4340
4345
4343
4342
4341
4347
4350
4349
4353
4352
4351
4346
4356
4357
4359
4360
4358
4363
4362
4361
4366
4368
4371
4372
4370
4373
4375
4376
4378
4377
4379
4374
4367
4382
4381
4385
4383
4390
4392
4393
4391
4389
4388
4387
4396
4397
4395
4394
4400
4399
4401
4404
4407
4406
4403
4402
4408
4398
4380
4364
4354
4339
4411
4415
4416
4414
4413
4409
4195
4420
4419
4422
4424
4425
4423
4426
4421
4429
4430
4433
4434
4432
4431
4427
4417
4165
4142
3460
4438
4437
4441
4440
4444
4446
4447
4445
4442
4439
4452
4454
4455
4453
4450
4449
4457
4460
4458
4461
4464
4463
4466
4465
4462
4469
4468
4470
4472
4474
4473
4471
4476
4479
4478
4482
4481
4480
4475
4467
4456
4484
4486
4488
4493
4492
4497
4496
4495
4491
4490
4499
4501
4500
4503
4505
4504
4507
4506
4502
4498
4489
4487
4513
4512
4510
4515
4514
4509
4520
4519
4517
4523
4521
4524
4516
4526
4527
4532
4531
4530
4529
4525
4534
4537
4536
4533
4539
4542
4541
4549
4548
4546
4545
4544
4551
4555
4554
4552
4550
4557
4556
4543
4559
4561
4560
4565
4567
4568
4566
4564
4563
4573
4571
4570
4569
4562
4575
4578
4577
4576
4574
4558
4582
4581
4583
4580
4579
4584
4538
4508
4588
4589
4590
4586
4591
4592
4594
4593
4585
4485
4483
4448
4598
4599
4597
4596
4602
4605
4606
4604
4608
4610
4609
4607
4612
4615
4618
4617
4614
4613
4620
4621
4619
4624
4626
4629
4628
4630
4631
4625
4622
4611
4634
4635
4633
4636
4632
4600
4638
4637
4640
4642
4643
4641
4645
4646
4648
4647
4649
4650
4652
4651
4644
4639
4656
4655
4659
4661
4662
4664
4663
4666
4665
4668
4667
4660
4672
4674
4673
4679
4681
4680
4677
4676
4670
4669
4657
4653
4685
4684
4687
4688
4690
4691
4689
4692
4696
4697
4701
4700
4699
4698
4694
4686
4703
4706
4705
4702
4709
4707
4711
4714
4713
4718
4716
4715
4719
4710
4721
4725
4724
4727
4726
4728
4730
4732
4731
4729
4722
4720
4735
4738
4739
4742
4741
4740
4745
4747
4746
4743
4749
4748
4736
4734
4751
4750
4753
4754
4752
4733
4756
4758
4761
4759
4763
4765
4764
4767
4770
4773
4772
4771
4769
4768
4775
4777
4776
4774
4766
4781
4782
4780
4779
4784
4783
4778
4762
4757
4787
4789
4790
4788
4793
4795
4798
4796
4794
4792
4800
4803
4802
4805
4806
4804
4801
4809
4808
4812
4814
4818
4817
4815
4813
4811
4810
4807
4821
4823
4822
4826
4827
4829
4828
4825
4819
4832
4835
4837
4838
4836
4839
4834
4833
4841
4844
4843
4840
4845
4831
4830
4799
4785
4847
4849
4850
4851
4848
4854
4856
4855
4859
4862
4861
4858
4852
4864
4867
4868
4866
4865
4872
4870
4873
4876
4875
4880
4879
4878
4883
4881
4874
4869
4863
4887
4886
4888
4893
4892
4890
4885
4895
4898
4897
4894
4901
4900
4899
4905
4904
4902
4884
4846
4755
4682
4909
4908
4912
4911
4910
4916
4915
4917
4919
4921
4920
4922
4925
4923
4927
4930
4931
4929
4926
4918
4932
4913
4907
4935
4934
4933
4939
4938
4936
4942
4940
4944
4945
4948
4949
4947
4955
4957
4956
4954
4953
4952
4951
4959
4960
4961
4965
4964
4968
4967
4970
4972
4971
4976
4975
4973
4977
4969
4966
4981
4980
4979
4982
4978
4962
4958
4984
4986
4987
4992
4990
4989
4988
4985
4998
4997
5000
5001
5002
4999
4995
5004
5003
4994
4983
4943
5010
5009
5007
5006
5005
5013
5012
5014
5017
5018
5019
5021
5020
5016
5022
5025
5024
5023
5015
5028
5027
5030
5033
5031
5035
5037
5040
5039
5036
5041
5034
5029
5043
5044
5042
5046
5048
5049
5053
5055
5054
5052
5058
5056
5051
5050
5047
5060
5064
5062
5059
5045
5069
5068
5072
5074
5073
5071
5067
5076
5079
5078
5075
5066
5065
5026
5081
5083
5084
5086
5085
5088
5089
5090
5091
5094
5097
5096
5093
5087
5082
5100
5099
5098
5102
5104
5107
5106
5111
5114
5112
5110
5109
5115
5103
5118
5116
5121
5120
5122
5125
5124
5127
5126
5129
5130
5128
5123
5134
5133
5132
5136
5135
5131
5139
5138
5143
5142
5144
5140
5147
5150
5148
5153
5154
5152
5159
5157
5156
5160
5155
5164
5165
5163
5167
5168
5166
5162
5171
5173
5174
5172
5176
5178
5177
5175
5170
5161
5151
5179
5182
5181
5186
5184
5190
5189
5192
5191
5194
5198
5197
5196
5193
5187
5180
5202
5201
5203
5207
5206
5204
5199
5145
5137
5119
5101
5209
5212
5211
5215
5214
5216
5218
5221
5220
5225
5227
5226
5223
5217
5213
5208
5080
5011
5230
5229
5234
5233
5235
5232
5238
5240
5239
5237
5241
5242
5246
5247
5245
5250
5249
5251
5248
5244
5256
5255
5258
5257
5253
5252
5236
5261
5260
5267
5265
5264
5270
5272
5271
5273
5269
5268
5274
5263
5278
5277
5276
5275
5262
5282
5281
5284
5285
5288
5287
5291
5290
5289
5292
5295
5293
5296
5298
5300
5303
5302
5299
5306
5305
5304
5297
5286
5310
5311
5312
5308
5307
5283
5279
5259
5314
5317
5319
5320
5322
5325
5326
5324
5321
5318
5315
5313
5328
5330
5332
5333
5331
5329
5334
5336
5338
5339
5341
5344
5346
5345
5349
5348
5351
5350
5347
5352
5342
5340
5337
5335
5327
5228
5354
5357
5356
5358
5361
5366
5365
5368
5367
5364
5370
5371
5369
5363
5376
5375
5378
5379
5382
5381
5384
5383
5380
5377
5373
5386
5388
5387
5390
5392
5391
5394
5393
5389
5397
5396
5395
5385
5399
5402
5401
5404
5407
5406
5409
5408
5405
5403
5410
5413
5416
5414
5419
5420
5417
5411
5422
5423
5425
5424
5429
5431
5430
5428
5427
5435
5437
5439
5443
5442
5440
5438
5436
5434
5433
5421
5447
5446
5448
5445
5452
5451
5450
5449
5444
5454
5453
5398
5372
5362
5359
5456
5458
5462
5461
5459
5465
5469
5468
5467
5464
5471
5470
5457
5473
5475
5476
5474
5472
5479
5478
5483
5481
5484
5487
5489
5488
5486
5485
5477
5491
5493
5497
5496
5500
5501
5502
5498
5503
5505
5507
5506
5504
5494
5492
5512
5511
5509
5508
5516
5515
5519
5518
5521
5524
5523
5527
5526
5530
5529
5528
5525
5520
5533
5535
5534
5532
5531
5538
5540
5539
5537
5544
5542
5541
5546
5547
5548
5545
5550
5549
5554
5556
5555
5553
5552
5551
5536
5517
5560
5559
5562
5564
5565
5563
5561
5558
5568
5567
5573
5572
5570
5577
5578
5575
5574
5566
5557
5513
5580
5582
5581
5587
5590
5591
5589
5593
5594
5592
5586
5585
5596
5599
5598
5595
5584
5583
5579
5602
5601
5606
5605
5604
5603
5600
5490
5455
5608
5611
5610
5614
5616
5620
5618
5621
5615
5612
5624
5623
5626
5629
5628
5625
5622
5632
5631
5636
5637
5635
5634
5641
5640
5638
5630
5643
5646
5649
5650
5648
5647
5645
5653
5654
5655
5651
5658
5656
5644
5660
5659
5662
5661
5642
5607
5664
5663
5353
5666
5668
5667
5670
5669
5674
5673
5671
5677
5676
5675
5680
5683
5681
5679
5685
5689
5687
5692
5690
5684
5695
5696
5701
5700
5698
5702
5703
5697
5694
5705
5708
5709
5712
5710
5715
5716
5713
5707
5706
5719
5720
5718
5722
5724
5723
5726
5728
5727
5725
5721
5731
5734
5733
5730
5729
5717
5736
5739
5737
5735
5704
5693
5678
5741
5742
5744
5745
5747
5748
5752
5751
5750
5754
5753
5755
5757
5758
5760
5759
5756
5749
5765
5764
5766
5762
5761
5769
5771
5774
5775
5772
5778
5776
5770
5780
5783
5784
5782
5779
5768
5787
5791
5789
5788
5792
5794
5793
5785
5767
5796
5799
5798
5801
5800
5804
5806
5808
5809
5810
5807
5805
5803
5812
5814
5815
5813
5816
5818
5821
5820
5823
5822
5824
5828
5827
5829
5825
5817
5831
5830
5811
5795
5746
5743
5740
5833
5837
5835
5834
5840
5842
5843
5841
5844
5839
5848
5846
5849
5845
5851
5854
5852
5850
5858
5857
5862
5861
5865
5867
5866
5864
5869
5868
5859
5872
5870
5874
5880
5881
5878
5877
5876
5875
5873
5884
5883
5886
5887
5885
5882
5855
5832
5665
4906
4595
4435
3069
3037
5889
5892
5891
5890
5894
5893
5896
5900
5902
5901
5899
5898
5904
5903
5897
5895
5909
5908
5907
5911
5910
5914
5913
5912
5916
5915
5918
5917
5922
5923
5920
5919
5906
5927
5926
5925
5930
5928
5934
5933
5936
5938
5941
5942
5940
5937
5945
5947
5950
5949
5953
5955
5954
5951
5946
5944
5943
5935
5958
5959
5962
5966
5965
5964
5967
5960
5957
5969
5970
5974
5973
5972
5968
5978
5976
5980
5983
5986
5985
5982
5981
5987
5988
5979
5975
5956
5991
5993
5992
5989
5931
5996
5998
5997
5999
5994
5924
6004
6005
6007
6006
6002
6001
6009
6012
6013
6011
6014
6016
6015
6010
6018
6020
6019
6021
6017
6008
6025
6029
6028
6027
6024
6023
6031
6036
6035
6034
6033
6037
6039
6038
6040
6032
6030
6022
6042
6045
6043
6046
6048
6049
6053
6051
6056
6054
6059
6060
6058
6062
6064
6063
6067
6066
6065
6069
6070
6068
6071
6073
6072
6074
6061
6057
6047
6076
6077
6079
6082
6081
6080
6086
6085
6088
6087
6083
6091
6092
6093
6090
6097
6099
6098
6100
6095
6102
6101
6089
6106
6107
6105
6110
6112
6113
6111
6109
6104
6116
6117
6115
6122
6121
6123
6120
6119
6128
6127
6125
6130
6129
6124
6134
6133
6132
6135
6137
6138
6139
6136
6141
6142
6144
6143
6140
6131
6114
6103
6078
6075
6147
6149
6148
6152
6151
6150
6153
6155
6156
6158
6157
6160
6161
6159
6163
6165
6168
6167
6170
6169
6164
6171
6173
6174
6175
6179
6178
6180
6176
6172
6162
6182
6185
6184
6183
6189
6188
6186
6181
6191
6190
6154
6145
6041
6000
6193
6196
6195
6194
6199
6198
6201
6200
6197
6206
6205
6204
6203
6207
6212
6211
6209
6214
6216
6217
6215
6213
6219
6222
6221
6224
6227
6226
6230
6234
6232
6229
6236
6235
6238
6239
6241
6243
6247
6245
6244
6242
6240
6249
6248
6237
6223
6251
6254
6256
6255
6253
6252
6258
6260
6259
6257
6250
6218
6263
6268
6267
6265
6271
6272
6275
6274
6276
6273
6270
6278
6279
6277
6283
6282
6284
6281
6287
6285
6290
6288
6280
6269
6261
6208
6202
6292
6293
6295
6297
6296
6299
6298
6303
6302
6307
6305
6304
6310
6316
6315
6313
6312
6311
6308
6301
6318
6321
6320
6324
6323
6326
6325
6328
6330
6329
6332
6336
6335
6333
6331
6327
6322
6317
6338
6341
6340
6337
6300
6294
6345
6344
6348
6347
6346
6342
6351
6355
6354
6352
6357
6358
6356
6350
6361
6360
6362
6365
6367
6366
6364
6359
6349
6369
6372
6371
6376
6375
6373
6370
6368
6378
6381
6380
6383
6384
6382
6379
6387
6385
6377
6390
6389
6391
6394
6397
6396
6393
6400
6399
6403
6402
6406
6405
6404
6401
6408
6411
6413
6416
6415
6414
6418
6421
6419
6423
6424
6422
6417
6412
6409
6407
6398
6426
6430
6428
6427
6432
6431
6436
6435
6439
6441
6440
6438
6443
6444
6442
6445
6447
6449
6448
6451
6453
6452
6450
6446
6457
6456
6454
6459
6460
6458
6433
6463
6462
6461
6466
6469
6471
6472
6473
6470
6476
6478
6477
6479
6474
6482
6481
6480
6484
6483
6467
6487
6486
6489
6490
6491
6492
6488
6496
6498
6501
6500
6499
6497
6494
6503
6504
6507
6506
6505
6502
6485
6464
6425
6510
6514
6512
6517
6520
6519
6522
6521
6527
6525
6528
6529
6524
6518
6515
6532
6530
6536
6535
6538
6539
6537
6541
6540
6545
6544
6549
6550
6548
6547
6552
6551
6546
6543
6542
6533
6508
6388
6291
6192
6554
6557
6560
6561
6559
6558
6563
6562
6565
6564
6556
6555
6568
6569
6572
6571
6577
6576
6575
6574
6579
6580
6578
6573
6582
6581
6570
6566
6586
6584
6587
6591
6592
6590
6593
6589
6596
6598
6600
6599
6597
6601
6595
6606
6605
6607
6603
6602
6611
6610
6614
6616
6615
6619
6621
6620
6623
6622
6618
6625
6624
6612
6608
6588
6583
6628
6631
6634
6633
6630
6629
6635
6637
6640
6639
6643
6642
6645
6644
6647
6646
6641
6638
6650
6653
6651
6649
6648
6655
6658
6657
6654
6636
6626
6553
6662
6666
6664
6669
6670
6673
6672
6671
6674
6668
6667
6661
6660
6676
6677
6675
6680
6683
6684
6682
6681
6685
6679
6686
6678
6688
6689
6691
6693
6695
6698
6696
6699
6700
6702
6703
6704
6705
6701
6694
6692
6708
6711
6714
6712
6716
6719
6717
6715
6709
6721
6723
6722
6720
6707
6726
6727
6731
6730
6732
6728
6724
6736
6738
6737
6735
6734
6740
6739
6733
6690
6687
6743
6744
6742
6746
6748
6752
6750
6747
6754
6757
6756
6759
6758
6753
6761
6763
6764
6762
6765
6760
6745
6769
6770
6771
6773
6774
6772
6768
6767
6778
6776
6780
6779
6775
6766
6784
6783
6788
6787
6786
6782
6781
6790
6791
6793
6795
6797
6798
6796
6794
6800
6801
6799
6803
6806
6805
6802
6808
6807
6811
6812
6810
6813
6815
6814
6819
6818
6817
6820
6823
6822
6821
6816
6809
6792
6789
6826
6827
6825
6829
6832
6831
6834
6835
6837
6836
6833
6828
6840
6842
6843
6848
6847
6850
6853
6852
6854
6855
6849
6845
6858
6856
6844
6841
6859
6838
6824
6741
6861
6863
6862
6867
6868
6869
6865
6872
6871
6874
6873
6878
6877
6876
6875
6881
6880
6883
6884
6882
6879
6870
6888
6889
6890
6887
6886
6885
6860
6894
6896
6895
6892
6898
6900
6902
6903
6901
6906
6905
6908
6907
6904
6910
6913
6912
6915
6914
6918
6919
6921
6920
6916
6923
6924
6922
6911
6909
6926
6928
6932
6930
6927
6935
6938
6936
6934
6933
6925
6939
6899
6941
6944
6943
6946
6945
6942
6948
6947
6949
6951
6953
6957
6956
6955
6963
6964
6961
6960
6966
6970
6969
6967
6965
6973
6976
6975
6974
6972
6978
6977
6971
6959
6958
6981
6983
6982
6985
6987
6986
6984
6979
6952
6989
6992
6991
6996
6997
6994
7000
7002
7003
7001
7004
6999
7007
7005
7010
7009
7013
7012
7011
7015
7019
7017
7014
7008
6993
6988
7021
7022
7023
7028
7026
7025
7020
6950
7030
7034
7033
7035
7037
7039
7038
7040
7036
7043
7041
7031
7046
7044
7049
7050
7048
7054
7052
7056
7057
7060
7062
7061
7059
7065
7068
7067
7064
7070
7069
7073
7072
7075
7076
7077
7074
7071
7058
7055
7051
7047
7079
7082
7081
7083
7085
7088
7092
7091
7090
7093
7089
7094
7086
7096
7099
7098
7103
7105
7104
7102
7101
7095
7084
7078
7109
7108
7112
7115
7114
7117
7116
7111
7110
7119
7118
7122
7125
7127
7128
7129
7126
7130
7124
7133
7131
7123
7136
7139
7138
7141
7140
7137
7144
7143
7142
7146
7147
7150
7154
7153
7155
7151
7149
7156
7148
7145
7134
7120
7106
7029
6940
6897
7158
7161
7160
7167
7166
7165
7169
7170
7168
7173
7177
7175
7178
7180
7179
7171
7164
7163
7162
7159
7157
6891
6659
7182
7183
7188
7186
7190
7189
7192
7194
7193
7191
7198
7199
7204
7203
7201
7200
7208
7209
7210
7207
7213
7212
7211
7206
7197
7196
7195
7215
7217
7216
7214
7185
7219
7223
7222
7221
7224
7226
7230
7229
7227
7232
7231
7225
7234
7233
7220
7237
7238
7242
7241
7245
7244
7243
7239
7249
7252
7250
7254
7253
7257
7255
7247
7261
7259
7262
7258
7236
7235
7218
7184
7265
7267
7266
7270
7268
7273
7275
7274
7278
7277
7282
7280
7276
7284
7286
7285
7288
7290
7289
7287
7291
7296
7295
7297
7293
7299
7303
7302
7301
7300
7298
7306
7310
7309
7308
7304
7313
7312
7311
7317
7316
7320
7321
7319
7323
7325
7329
7327
7324
7322
7318
7314
7330
7332
7334
7335
7336
7333
7338
7337
7342
7341
7344
7347
7346
7349
7348
7343
7351
7353
7352
7355
7358
7359
7357
7354
7350
7362
7361
7360
7339
7366
7367
7365
7370
7372
7373
7371
7369
7375
7374
7376
7368
7378
7379
7383
7384
7381
7387
7390
7388
7386
7385
7393
7394
7392
7391
7396
7395
7399
7397
7377
7364
7403
7402
7401
7406
7408
7411
7410
7407
7404
7413
7415
7414
7418
7419
7417
7416
7420
7412
7400
7363
7331
7292
7283
7272
7271
7423
7422
7426
7424
7428
7429
7430
7433
7432
7435
7436
7434
7438
7440
7441
7439
7437
7442
7431
7427
7443
7445
7446
7449
7451
7450
7448
7452
7455
7456
7454
7459
7460
7458
7465
7464
7466
7469
7474
7473
7471
7476
7478
7477
7482
7481
7480
7479
7475
7485
7484
7483
7467
7462
7461
7457
7487
7489
7488
7495
7494
7492
7491
7486
7453
7498
7500
7501
7499
7504
7507
7506
7508
7505
7510
7512
7513
7511
7514
7516
7515
7518
7517
7521
7524
7523
7525
7527
7528
7530
7529
7526
7520
7509
7534
7533
7535
7531
7502
7538
7539
7541
7540
7537
7545
7547
7548
7550
7549
7546
7544
7543
7542
7536
7496
7554
7552
7556
7555
7551
7558
7561
7560
7564
7563
7568
7567
7565
7569
7562
7571
7572
7575
7573
7579
7581
7580
7578
7577
7576
7584
7583
7587
7588
7590
7593
7592
7596
7600
7598
7595
7589
7585
7602
7604
7605
7606
7603
7608
7610
7611
7609
7607
7601
7582
7570
7557
7444
7421
7613
7615
7616
7614
7618
7622
7620
7619
7617
7625
7629
7627
7632
7633
7635
7634
7637
7636
7631
7638
7641
7643
7646
7644
7642
7648
7649
7650
7652
7653
7654
7655
7651
7657
7656
7659
7660
7658
7647
7662
7665
7664
7666
7661
7669
7670
7674
7673
7671
7668
7676
7675
7677
7680
7681
7684
7683
7688
7687
7689
7685
7692
7693
7690
7682
7695
7698
7697
7699
7702
7703
7704
7709
7708
7707
7706
7705
7711
7710
7700
7715
7714
7717
7718
7721
7722
7723
7724
7720
7725
7726
7719
7716
7712
7694
7678
7667
7639
7623
7612
7729
7733
7732
7737
7736
7738
7735
7731
7730
7742
7744
7747
7746
7743
7740
7750
7751
7749
7748
7755
7754
7757
7756
7760
7763
7764
7762
7759
7767
7765
7752
7770
7775
7774
7772
7778
7779
7776
7780
7781
7768
7783
7785
7786
7784
7788
7790
7792
7791
7795
7798
7796
7800
7799
7793
7789
7803
7805
7804
7806
7801
7787
7782
7809
7811
7810
7814
7812
7816
7818
7820
7819
7822
7823
7821
7817
7815
7808
7826
7828
7827
7829
7825
7824
7831
7832
7830
7807
7739
7727
7263
7834
7835
7837
7840
7839
7843
7845
7844
7842
7846
7847
7841
7849
7851
7854
7853
7855
7860
7859
7862
7861
7857
7850
7848
7836
7864
7867
7866
7872
7871
7869
7874
7873
7876
7875
7868
7877
7879
7881
7880
7882
7883
7887
7886
7884
7878
7863
7890
7894
7893
7892
7895
7891
7889
7898
7899
7897
7901
7900
7903
7906
7908
7909
7907
7905
7910
7911
7912
7904
7902
7896
7914
7916
7915
7913
7919
7918
7921
7920
7923
7925
7926
7924
7922
7930
7931
7929
7932
7933
7928
7935
7938
7937
7940
7939
7934
7927
7943
7947
7946
7945
7941
7917
7949
7951
7954
7955
7957
7956
7953
7952
7959
7962
7963
7961
7958
7950
7965
7966
7967
7970
7974
7972
7969
7977
7976
7975
7968
7964
7980
7983
7984
7982
7987
7988
7991
7992
7993
7990
7994
7989
7996
7997
7995
8000
8003
8006
8007
8004
8002
8010
8011
8008
8001
7999
8013
8014
8018
8017
8016
8020
8022
8023
8021
8025
8024
8019
8028
8027
8031
8032
8030
8037
8036
8034
8029
8026
8039
8041
8043
8042
8044
8048
8047
8046
8045
8040
8051
8050
8055
8054
8052
8057
8061
8060
8059
8056
8062
8065
8064
8067
8068
8066
8071
8070
8069
8063
8074
8077
8075
8081
8080
8082
8083
8084
8079
8072
8049
8087
8089
8091
8093
8092
8095
8096
8094
8097
8090
8101
8104
8103
8102
8106
8109
8107
8105
8100
8099
8088
8112
8114
8118
8117
8115
8113
8123
8122
8120
8126
8128
8129
8127
8125
8119
8110
8133
8136
8134
8138
8139
8137
8131
8130
8085
8038
8141
8142
8144
8143
8145
8148
8147
8152
8150
8154
8156
8155
8158
8161
8159
8157
8153
8146
8163
8166
8165
8169
8170
8172
8171
8168
8167
8174
8173
8175
8162
8177
8179
8180
8185
8184
8183
8182
8188
8187
8191
8190
8189
8186
8194
8197
8198
8196
8195
8193
8192
8178
8203
8204
8202
8201
8200
8199
8176
8140
8012
7985
8206
8210
8208
8211
8213
8215
8214
8217
8219
8222
8221
8220
8218
8223
8227
8226
8225
8224
8216
8212
8230
8229
8228
8205
7978
7948
8233
8235
8239
8238
8237
8236
8234
8240
8243
8242
8245
8248
8250
8249
8247
8246
8251
8244
8254
8255
8252
8257
8261
8259
8258
8264
8263
8262
8265
8268
8266
8272
8271
8270
8276
8275
8280
8279
8282
8281
8277
8274
8273
8269
8286
8285
8284
8287
8290
8292
8294
8293
8291
8300
8299
8297
8296
8295
8288
8304
8305
8303
8302
8301
8309
8308
8312
8311
8314
8315
8313
8310
8306
8283
8317
8321
8320
8319
8316
8256
8241
8324
8323
8322
8328
8327
8330
8332
8331
8333
8329
8335
8338
8340
8339
8337
8336
8343
8342
8347
8346
8344
8349
8352
8353
8351
8354
8355
8348
8341
8334
8325
8357
8358
8360
8364
8363
8362
8361
8367
8372
8371
8369
8365
8374
8375
8377
8376
8378
8373
8359
8381
8382
8379
8387
8386
8384
8389
8392
8393
8391
8395
8398
8399
8397
8401
8402
8403
8400
8396
8394
8390
8405
8404
8408
8410
8409
8412
8414
8413
8411
8406
8388
8418
8417
8422
8421
8424
8423
8420
8428
8426
8430
8429
8425
8432
8435
8434
8433
8431
8436
8415
8438
8440
8443
8446
8445
8442
8448
8447
8441
8451
8450
8454
8453
8452
8449
8439
8457
8455
8437
8383
8356
8231
8460
8463
8464
8462
8468
8467
8466
8469
8472
8473
8475
8476
8474
8480
8479
8478
8481
8484
8486
8489
8493
8492
8491
8488
8487
8495
8494
8485
8483
8482
8477
8470
8465
8499
8498
8501
8503
8504
8506
8507
8505
8502
8509
8508
8511
8515
8513
8516
8518
8517
8512
8510
8500
8523
8522
8521
8520
8519
8525
8529
8527
8526
8532
8536
8534
8530
8524
8539
8540
8538
8542
8541
8544
8543
8548
8547
8545
8551
8554
8552
8550
8556
8558
8557
8560
8559
8564
8563
8566
8565
8561
8555
8549
8568
8569
8572
8571
8575
8574
8578
8579
8577
8573
8584
8583
8582
8581
8580
8570
8586
8585
8567
8588
8587
8537
8496
8458
7888
7833
8592
8591
8590
8596
8595
8594
8593
8598
8599
8602
8604
8603
8607
8605
8600
8608
8612
8611
8614
8613
8610
8616
8615
8609
8619
8622
8623
8621
8625
8624
8628
8627
8630
8629
8626
8620
8632
8635
8636
8634
8631
8617
8597
8639
8638
8644
8643
8641
8645
8648
8650
8649
8647
8646
8654
8653
8656
8655
8652
8659
8660
8658
8661
8663
8662
8657
8665
8667
8668
8669
8666
8671
8672
8673
8670
8664
8674
8651
8676
8678
8682
8681
8679
8677
8684
8686
8685
8688
8687
8689
8683
8691
8693
8695
8696
8699
8697
8700
8702
8705
8704
8703
8701
8708
8710
8709
8712
8711
8716
8718
8717
8721
8720
8719
8714
8723
8724
8722
8706
8694
8692
8690
8727
8730
8731
8729
8735
8734
8737
8739
8738
8741
8745
8744
8743
8740
8736
8733
8732
8725
8675
8637
8747
8751
8749
8755
8754
8757
8759
8758
8756
8762
8766
8765
8764
8760
8768
8767
8770
8772
8775
8773
8777
8780
8779
8776
8782
8781
8771
8769
8786
8785
8784
8788
8791
8790
8792
8789
8787
8783
8752
8746
8794
8799
8800
8797
8796
8801
8795
8804
8807
8806
8808
8813
8812
8811
8810
8814
8815
8805
8816
8818
8824
8823
8822
8825
8826
8821
8820
8819
8817
8802
8830
8829
8833
8835
8834
8838
8839
8837
8836
8841
8843
8842
8840
8831
8845
8849
8847
8854
8853
8856
8855
8852
8851
8844
8860
8859
8862
8865
8864
8867
8866
8861
8869
8868
8870
8857
8873
8872
8875
8877
8876
8874
8879
8883
8882
8880
8878
8871
8886
8885
8887
8889
8890
8891
8892
8888
8895
8894
8893
8897
8900
8902
8901
8904
8905
8906
8908
8907
8903
8910
8909
8898
8913
8916
8914
8920
8919
8923
8925
8926
8924
8929
8930
8927
8921
8917
8911
8896
8932
8935
8934
8933
8936
8940
8943
8942
8939
8938
8945
8944
8948
8951
8949
8952
8947
8946
8955
8956
8957
8954
8953
8931
8959
8962
8960
8964
8965
8968
8969
8970
8967
8963
8972
8973
8976
8975
8977
8974
8981
8980
8983
8982
8978
8987
8986
8989
8991
8990
8988
8984
8993
8997
8995
8998
8992
8971
8958
8884
8827
9001
9005
9004
9010
9009
9008
9007
9012
9015
9014
9011
9002
9016
8999
9018
9022
9021
9020
9024
9026
9030
9029
9027
9025
9023
9032
9033
9031
9035
9034
9037
9038
9036
9039
9041
9042
9044
9045
9043
9040
9048
9047
9049
9051
9053
9052
9050
9054
9057
9060
9058
9056
9062
9061
9066
9065
9067
9068
9069
9072
9073
9071
9074
9070
9064
9063
9077
9076
9079
9078
9081
9080
9075
9083
9085
9084
9089
9091
9090
9088
9087
9082
9055
9095
9094
9092
9046
9098
9101
9103
9104
9102
9099
9106
9109
9108
9105
9113
9111
9117
9118
9119
9115
9123
9121
9124
9125
9120
9110
9096
9017
8793
9128
9131
9132
9130
9129
9133
9135
9139
9141
9142
9147
9145
9144
9140
9137
9136
9149
9150
9152
9155
9154
9157
9158
9156
9151
9159
9148
9161
9163
9165
9164
9168
9166
9162
9170
9172
9173
9175
9174
9177
9179
9180
9183
9182
9185
9184
9181
9178
9176
9171
9169
9160
9134
9189
9188
9191
9190
9194
9193
9192
9196
9198
9201
9200
9197
9203
9206
9205
9207
9209
9208
9212
9210
9215
9216
9214
9218
9221
9220
9219
9217
9213
9204
9202
9224
9223
9227
9225
9228
9222
9195
9233
9232
9237
9236
9235
9231
9230
9240
9238
9229
9243
9242
9248
9247
9245
9249
9241
9186
9253
9256
9254
9260
9259
9263
9264
9262
9265
9266
9261
9257
9251
9269
9271
9270
9274
9277
9276
9273
9279
9280
9278
9268
9284
9283
9282
9285
9281
9290
9289
9287
9292
9294
9296
9295
9293
9297
9291
9299
9300
9298
9286
9267
9302
9304
9305
9303
9307
9310
9308
9313
9314
9315
9312
9311
9306
9318
9317
9321
9319
9322
9323
9325
9324
9316
9329
9328
9331
9330
9327
9334
9333
9332
9335
9326
9338
9337
9336
9341
9342
9344
9343
9346
9345
9348
9350
9353
9352
9354
9351
9349
9347
9357
9356
9355
9339
9301
9250
9360
9363
9362
9364
9361
9359
9367
9370
9369
9371
9372
9368
9375
9378
9376
9382
9381
9384
9383
9379
9388
9387
9389
9391
9392
9390
9386
9394
9393
9385
9397
9398
9402
9401
9404
9403
9399
9396
9395
9374
9373
9365
9408
9407
9410
9409
9411
9414
9415
9413
9412
9419
9418
9420
9417
9423
9422
9421
9426
9429
9427
9425
9424
9416
9405
9432
9431
9434
9433
9436
9437
9435
9439
9442
9446
9444
9441
9440
9450
9449
9453
9452
9455
9454
9451
9447
9458
9459
9457
9462
9465
9464
9461
9466
9456
9438
9468
9470
9469
9473
9476
9475
9474
9472
9477
9478
9467
9430
9358
9480
9482
9484
9485
9483
9481
9487
9486
9490
9493
9494
9492
9488
9495
9498
9499
9497
9502
9503
9505
9504
9501
9508
9509
9513
9511
9516
9518
9522
9521
9519
9517
9515
9507
9506
9524
9528
9527
9526
9529
9532
9534
9536
9535
9533
9538
9537
9531
9541
9544
9542
9540
9547
9545
9548
9539
9550
9551
9552
9554
9555
9556
9553
9558
9561
9560
9557
9563
9565
9566
9564
9567
9571
9569
9575
9574
9573
9576
9572
9568
9580
9581
9579
9578
9577
9562
9549
9584
9585
9588
9587
9589
9591
9592
9590
9586
9594
9596
9598
9597
9600
9599
9595
9601
9603
9606
9605
9604
9609
9613
9612
9610
9608
9602
9617
9619
9621
9622
9624
9623
9626
9625
9620
9618
9616
9629
9628
9631
9632
9630
9634
9636
9637
9638
9639
9635
9641
9640
9633
9627
9615
9614
9593
9582
9523
9496
9479
9126
8589
7181
9645
9646
9644
9647
9643
9651
9649
9648
9653
9655
9659
9657
9661
9665
9663
9669
9668
9666
9660
9672
9671
9670
9674
9675
9679
9678
9677
9680
9673
9654
9682
9685
9683
9681
9652
9689
9688
9693
9692
9695
9696
9694
9699
9698
9701
9702
9704
9703
9700
9709
9708
9712
9714
9713
9711
9710
9706
9705
9719
9717
9716
9722
9721
9720
9715
9724
9728
9730
9729
9726
9731
9725
9723
9697
9735
9734
9737
9739
9741
9742
9740
9746
9745
9744
9743
9738
9748
9747
9751
9750
9755
9753
9749
9736
9758
9759
9757
9760
9762
9763
9766
9767
9765
9761
9756
9771
9770
9775
9773
9778
9776
9781
9780
9779
9769
9768
9732
9690
9686
9783
9785
9788
9789
9787
9790
9791
9784
9793
9795
9798
9797
9794
9800
9799
9801
9802
9804
9806
9805
9803
9808
9812
9811
9817
9818
9815
9814
9809
9820
9824
9822
9826
9828
9829
9827
9825
9819
9807
9832
9831
9830
9792
9836
9834
9838
9837
9840
9843
9844
9842
9839
9846
9848
9849
9847
9852
9850
9845
9855
9856
9857
9859
9858
9854
9862
9861
9867
9866
9864
9860
9870
9869
9871
9873
9872
9876
9878
9881
9880
9883
9882
9877
9874
9868
9853
9886
9885
9889
9891
9890
9888
9887
9893
9894
9895
9897
9899
9898
9901
9900
9904
9908
9907
9906
9905
9902
9896
9892
9911
9912
9914
9913
9917
9918
9915
9919
9921
9923
9922
9920
9910
9909
9926
9928
9931
9932
9930
9929
9927
9924
9935
9936
9934
9933
9884
9833
9939
9942
9940
9944
9948
9946
9943
9952
9951
9956
9955
9953
9958
9959
9962
9964
9966
9967
9965
9969
9968
9973
9971
9970
9963
9960
9957
9950
9975
9978
9977
9976
9979
9982
9983
9986
9985
9984
9981
9980
9989
9990
9995
9994
9992
9988
9987
9974
9949
9937
9997
10000
9998
9996
9782
9642
5888
Exiting @ tick 20063550000 because exiting with last active thread context
