
---------- Begin Simulation Statistics ----------
simSeconds                                   0.020728                       # Number of seconds simulated (Second)
simTicks                                  20728491500                       # Number of ticks simulated (Tick)
finalTick                                 20728491500                       # Number of ticks from beginning of simulation (restored from checkpoints and never reset) (Tick)
simFreq                                  1000000000000                       # The number of ticks per simulated second ((Tick/Second))
hostSeconds                                    303.39                       # Real time elapsed on the host (Second)
hostTickRate                                 68323458                       # The number of ticks simulated per host second (ticks/s) ((Tick/Second))
hostMemory                                     803308                       # Number of bytes of host memory used (Byte)
simInsts                                     21343836                       # Number of instructions simulated (Count)
simOps                                       39396425                       # Number of ops (including micro ops) simulated (Count)
hostInstRate                                    70352                       # Simulator instruction rate (inst/s) ((Count/Second))
hostOpRate                                     129855                       # Simulator op (including micro ops) rate (op/s) ((Count/Second))
system.clk_domain.clock                           500                       # Clock period in ticks (Tick)
system.clk_domain.voltage_domain.voltage            1                       # Voltage in Volts (Volt)
system.cpu.numCycles                         41456984                       # Number of cpu cycles simulated (Cycle)
system.cpu.numWorkItemsStarted                      0                       # Number of work items this cpu started (Count)
system.cpu.numWorkItemsCompleted                    0                       # Number of work items this cpu completed (Count)
system.cpu.instsAdded                        46257365                       # Number of instructions added to the IQ (excludes non-spec) (Count)
system.cpu.nonSpecInstsAdded                    19357                       # Number of non-speculative instructions added to the IQ (Count)
system.cpu.instsIssued                       44438136                       # Number of instructions issued (Count)
system.cpu.squashedInstsIssued                    934                       # Number of squashed instructions issued (Count)
system.cpu.squashedInstsExamined              6880256                       # Number of squashed instructions iterated over during squash; mainly for profiling (Count)
system.cpu.squashedOperandsExamined          10428663                       # Number of squashed operands that are examined and possibly removed from graph (Count)
system.cpu.squashedNonSpecRemoved               19339                       # Number of squashed non-spec instructions that were removed (Count)
system.cpu.numIssuedDist::samples            39125480                       # Number of insts issued each cycle (Count)
system.cpu.numIssuedDist::mean               1.135785                       # Number of insts issued each cycle (Count)
system.cpu.numIssuedDist::stdev              1.700257                       # Number of insts issued each cycle (Count)
system.cpu.numIssuedDist::underflows                0      0.00%      0.00% # Number of insts issued each cycle (Count)
system.cpu.numIssuedDist::0                  23641177     60.42%     60.42% # Number of insts issued each cycle (Count)
system.cpu.numIssuedDist::1                   3674761      9.39%     69.82% # Number of insts issued each cycle (Count)
system.cpu.numIssuedDist::2                   3411958      8.72%     78.54% # Number of insts issued each cycle (Count)
system.cpu.numIssuedDist::3                   3260380      8.33%     86.87% # Number of insts issued each cycle (Count)
system.cpu.numIssuedDist::4                   2643826      6.76%     93.63% # Number of insts issued each cycle (Count)
system.cpu.numIssuedDist::5                   1377253      3.52%     97.15% # Number of insts issued each cycle (Count)
system.cpu.numIssuedDist::6                   1116125      2.85%    100.00% # Number of insts issued each cycle (Count)
system.cpu.numIssuedDist::overflows                 0      0.00%    100.00% # Number of insts issued each cycle (Count)
system.cpu.numIssuedDist::min_value                 0                       # Number of insts issued each cycle (Count)
system.cpu.numIssuedDist::max_value                 6                       # Number of insts issued each cycle (Count)
system.cpu.numIssuedDist::total              39125480                       # Number of insts issued each cycle (Count)
system.cpu.statFuBusy::No_OpClass                   0      0.00%      0.00% # attempts to use FU when none available (Count)
system.cpu.statFuBusy::IntAlu                       0      0.00%      0.00% # attempts to use FU when none available (Count)
system.cpu.statFuBusy::IntMult                      0      0.00%      0.00% # attempts to use FU when none available (Count)
system.cpu.statFuBusy::IntDiv                       0      0.00%      0.00% # attempts to use FU when none available (Count)
system.cpu.statFuBusy::FloatAdd                     0      0.00%      0.00% # attempts to use FU when none available (Count)
system.cpu.statFuBusy::FloatCmp                     0      0.00%      0.00% # attempts to use FU when none available (Count)
system.cpu.statFuBusy::FloatCvt                     0      0.00%      0.00% # attempts to use FU when none available (Count)
system.cpu.statFuBusy::FloatMult                    0      0.00%      0.00% # attempts to use FU when none available (Count)
system.cpu.statFuBusy::FloatMultAcc                 0      0.00%      0.00% # attempts to use FU when none available (Count)
system.cpu.statFuBusy::FloatDiv                     0      0.00%      0.00% # attempts to use FU when none available (Count)
system.cpu.statFuBusy::FloatMisc                    0      0.00%      0.00% # attempts to use FU when none available (Count)
system.cpu.statFuBusy::FloatSqrt                    0      0.00%      0.00% # attempts to use FU when none available (Count)
system.cpu.statFuBusy::SimdAdd                      0      0.00%      0.00% # attempts to use FU when none available (Count)
system.cpu.statFuBusy::SimdAddAcc                   0      0.00%      0.00% # attempts to use FU when none available (Count)
system.cpu.statFuBusy::SimdAlu                      0      0.00%      0.00% # attempts to use FU when none available (Count)
system.cpu.statFuBusy::SimdCmp                      0      0.00%      0.00% # attempts to use FU when none available (Count)
system.cpu.statFuBusy::SimdCvt                      3      0.00%      0.00% # attempts to use FU when none available (Count)
system.cpu.statFuBusy::SimdMisc                105701     65.64%     65.64% # attempts to use FU when none available (Count)
system.cpu.statFuBusy::SimdMult                     0      0.00%     65.64% # attempts to use FU when none available (Count)
system.cpu.statFuBusy::SimdMultAcc                  0      0.00%     65.64% # attempts to use FU when none available (Count)
system.cpu.statFuBusy::SimdShift                    0      0.00%     65.64% # attempts to use FU when none available (Count)
system.cpu.statFuBusy::SimdShiftAcc                 0      0.00%     65.64% # attempts to use FU when none available (Count)
system.cpu.statFuBusy::SimdDiv                      0      0.00%     65.64% # attempts to use FU when none available (Count)
system.cpu.statFuBusy::SimdSqrt                     0      0.00%     65.64% # attempts to use FU when none available (Count)
system.cpu.statFuBusy::SimdFloatAdd                 0      0.00%     65.64% # attempts to use FU when none available (Count)
system.cpu.statFuBusy::SimdFloatAlu                 0      0.00%     65.64% # attempts to use FU when none available (Count)
system.cpu.statFuBusy::SimdFloatCmp                 0      0.00%     65.64% # attempts to use FU when none available (Count)
system.cpu.statFuBusy::SimdFloatCvt                 0      0.00%     65.64% # attempts to use FU when none available (Count)
system.cpu.statFuBusy::SimdFloatDiv                 0      0.00%     65.64% # attempts to use FU when none available (Count)
system.cpu.statFuBusy::SimdFloatMisc                0      0.00%     65.64% # attempts to use FU when none available (Count)
system.cpu.statFuBusy::SimdFloatMult                0      0.00%     65.64% # attempts to use FU when none available (Count)
system.cpu.statFuBusy::SimdFloatMultAcc             0      0.00%     65.64% # attempts to use FU when none available (Count)
system.cpu.statFuBusy::SimdFloatSqrt                0      0.00%     65.64% # attempts to use FU when none available (Count)
system.cpu.statFuBusy::SimdReduceAdd                0      0.00%     65.64% # attempts to use FU when none available (Count)
system.cpu.statFuBusy::SimdReduceAlu                0      0.00%     65.64% # attempts to use FU when none available (Count)
system.cpu.statFuBusy::SimdReduceCmp                0      0.00%     65.64% # attempts to use FU when none available (Count)
system.cpu.statFuBusy::SimdFloatReduceAdd            0      0.00%     65.64% # attempts to use FU when none available (Count)
system.cpu.statFuBusy::SimdFloatReduceCmp            0      0.00%     65.64% # attempts to use FU when none available (Count)
system.cpu.statFuBusy::SimdAes                      0      0.00%     65.64% # attempts to use FU when none available (Count)
system.cpu.statFuBusy::SimdAesMix                   0      0.00%     65.64% # attempts to use FU when none available (Count)
system.cpu.statFuBusy::SimdSha1Hash                 0      0.00%     65.64% # attempts to use FU when none available (Count)
system.cpu.statFuBusy::SimdSha1Hash2                0      0.00%     65.64% # attempts to use FU when none available (Count)
system.cpu.statFuBusy::SimdSha256Hash               0      0.00%     65.64% # attempts to use FU when none available (Count)
system.cpu.statFuBusy::SimdSha256Hash2              0      0.00%     65.64% # attempts to use FU when none available (Count)
system.cpu.statFuBusy::SimdShaSigma2                0      0.00%     65.64% # attempts to use FU when none available (Count)
system.cpu.statFuBusy::SimdShaSigma3                0      0.00%     65.64% # attempts to use FU when none available (Count)
system.cpu.statFuBusy::SimdPredAlu                  0      0.00%     65.64% # attempts to use FU when none available (Count)
system.cpu.statFuBusy::MemRead                  31811     19.75%     85.39% # attempts to use FU when none available (Count)
system.cpu.statFuBusy::MemWrite                 23514     14.60%     99.99% # attempts to use FU when none available (Count)
system.cpu.statFuBusy::FloatMemRead                 4      0.00%    100.00% # attempts to use FU when none available (Count)
system.cpu.statFuBusy::FloatMemWrite                8      0.00%    100.00% # attempts to use FU when none available (Count)
system.cpu.statFuBusy::IprAccess                    0      0.00%    100.00% # attempts to use FU when none available (Count)
system.cpu.statFuBusy::InstPrefetch                 0      0.00%    100.00% # attempts to use FU when none available (Count)
system.cpu.statIssuedInstType_0::No_OpClass        54417      0.12%      0.12% # Number of instructions issued per FU type, per thread (Count)
system.cpu.statIssuedInstType_0::IntAlu      31604727     71.12%     71.24% # Number of instructions issued per FU type, per thread (Count)
system.cpu.statIssuedInstType_0::IntMult       128938      0.29%     71.53% # Number of instructions issued per FU type, per thread (Count)
system.cpu.statIssuedInstType_0::IntDiv        126971      0.29%     71.82% # Number of instructions issued per FU type, per thread (Count)
system.cpu.statIssuedInstType_0::FloatAdd        35441      0.08%     71.90% # Number of instructions issued per FU type, per thread (Count)
system.cpu.statIssuedInstType_0::FloatCmp            0      0.00%     71.90% # Number of instructions issued per FU type, per thread (Count)
system.cpu.statIssuedInstType_0::FloatCvt           32      0.00%     71.90% # Number of instructions issued per FU type, per thread (Count)
system.cpu.statIssuedInstType_0::FloatMult            0      0.00%     71.90% # Number of instructions issued per FU type, per thread (Count)
system.cpu.statIssuedInstType_0::FloatMultAcc            0      0.00%     71.90% # Number of instructions issued per FU type, per thread (Count)
system.cpu.statIssuedInstType_0::FloatDiv            0      0.00%     71.90% # Number of instructions issued per FU type, per thread (Count)
system.cpu.statIssuedInstType_0::FloatMisc            0      0.00%     71.90% # Number of instructions issued per FU type, per thread (Count)
system.cpu.statIssuedInstType_0::FloatSqrt            0      0.00%     71.90% # Number of instructions issued per FU type, per thread (Count)
system.cpu.statIssuedInstType_0::SimdAdd            0      0.00%     71.90% # Number of instructions issued per FU type, per thread (Count)
system.cpu.statIssuedInstType_0::SimdAddAcc            0      0.00%     71.90% # Number of instructions issued per FU type, per thread (Count)
system.cpu.statIssuedInstType_0::SimdAlu        70850      0.16%     72.06% # Number of instructions issued per FU type, per thread (Count)
system.cpu.statIssuedInstType_0::SimdCmp            0      0.00%     72.06% # Number of instructions issued per FU type, per thread (Count)
system.cpu.statIssuedInstType_0::SimdCvt       141713      0.32%     72.38% # Number of instructions issued per FU type, per thread (Count)
system.cpu.statIssuedInstType_0::SimdMisc       389687      0.88%     73.25% # Number of instructions issued per FU type, per thread (Count)
system.cpu.statIssuedInstType_0::SimdMult            0      0.00%     73.25% # Number of instructions issued per FU type, per thread (Count)
system.cpu.statIssuedInstType_0::SimdMultAcc            0      0.00%     73.25% # Number of instructions issued per FU type, per thread (Count)
system.cpu.statIssuedInstType_0::SimdShift            0      0.00%     73.25% # Number of instructions issued per FU type, per thread (Count)
system.cpu.statIssuedInstType_0::SimdShiftAcc            0      0.00%     73.25% # Number of instructions issued per FU type, per thread (Count)
system.cpu.statIssuedInstType_0::SimdDiv            0      0.00%     73.25% # Number of instructions issued per FU type, per thread (Count)
system.cpu.statIssuedInstType_0::SimdSqrt            0      0.00%     73.25% # Number of instructions issued per FU type, per thread (Count)
system.cpu.statIssuedInstType_0::SimdFloatAdd            0      0.00%     73.25% # Number of instructions issued per FU type, per thread (Count)
system.cpu.statIssuedInstType_0::SimdFloatAlu            0      0.00%     73.25% # Number of instructions issued per FU type, per thread (Count)
system.cpu.statIssuedInstType_0::SimdFloatCmp            0      0.00%     73.25% # Number of instructions issued per FU type, per thread (Count)
system.cpu.statIssuedInstType_0::SimdFloatCvt            0      0.00%     73.25% # Number of instructions issued per FU type, per thread (Count)
system.cpu.statIssuedInstType_0::SimdFloatDiv            0      0.00%     73.25% # Number of instructions issued per FU type, per thread (Count)
system.cpu.statIssuedInstType_0::SimdFloatMisc            0      0.00%     73.25% # Number of instructions issued per FU type, per thread (Count)
system.cpu.statIssuedInstType_0::SimdFloatMult            0      0.00%     73.25% # Number of instructions issued per FU type, per thread (Count)
system.cpu.statIssuedInstType_0::SimdFloatMultAcc            0      0.00%     73.25% # Number of instructions issued per FU type, per thread (Count)
system.cpu.statIssuedInstType_0::SimdFloatSqrt            0      0.00%     73.25% # Number of instructions issued per FU type, per thread (Count)
system.cpu.statIssuedInstType_0::SimdReduceAdd            0      0.00%     73.25% # Number of instructions issued per FU type, per thread (Count)
system.cpu.statIssuedInstType_0::SimdReduceAlu            0      0.00%     73.25% # Number of instructions issued per FU type, per thread (Count)
system.cpu.statIssuedInstType_0::SimdReduceCmp            0      0.00%     73.25% # Number of instructions issued per FU type, per thread (Count)
system.cpu.statIssuedInstType_0::SimdFloatReduceAdd            0      0.00%     73.25% # Number of instructions issued per FU type, per thread (Count)
system.cpu.statIssuedInstType_0::SimdFloatReduceCmp            0      0.00%     73.25% # Number of instructions issued per FU type, per thread (Count)
system.cpu.statIssuedInstType_0::SimdAes            0      0.00%     73.25% # Number of instructions issued per FU type, per thread (Count)
system.cpu.statIssuedInstType_0::SimdAesMix            0      0.00%     73.25% # Number of instructions issued per FU type, per thread (Count)
system.cpu.statIssuedInstType_0::SimdSha1Hash            0      0.00%     73.25% # Number of instructions issued per FU type, per thread (Count)
system.cpu.statIssuedInstType_0::SimdSha1Hash2            0      0.00%     73.25% # Number of instructions issued per FU type, per thread (Count)
system.cpu.statIssuedInstType_0::SimdSha256Hash            0      0.00%     73.25% # Number of instructions issued per FU type, per thread (Count)
system.cpu.statIssuedInstType_0::SimdSha256Hash2            0      0.00%     73.25% # Number of instructions issued per FU type, per thread (Count)
system.cpu.statIssuedInstType_0::SimdShaSigma2            0      0.00%     73.25% # Number of instructions issued per FU type, per thread (Count)
system.cpu.statIssuedInstType_0::SimdShaSigma3            0      0.00%     73.25% # Number of instructions issued per FU type, per thread (Count)
system.cpu.statIssuedInstType_0::SimdPredAlu            0      0.00%     73.25% # Number of instructions issued per FU type, per thread (Count)
system.cpu.statIssuedInstType_0::MemRead      8360692     18.81%     92.07% # Number of instructions issued per FU type, per thread (Count)
system.cpu.statIssuedInstType_0::MemWrite      3453670      7.77%     99.84% # Number of instructions issued per FU type, per thread (Count)
system.cpu.statIssuedInstType_0::FloatMemRead        70922      0.16%    100.00% # Number of instructions issued per FU type, per thread (Count)
system.cpu.statIssuedInstType_0::FloatMemWrite           76      0.00%    100.00% # Number of instructions issued per FU type, per thread (Count)
system.cpu.statIssuedInstType_0::IprAccess            0      0.00%    100.00% # Number of instructions issued per FU type, per thread (Count)
system.cpu.statIssuedInstType_0::InstPrefetch            0      0.00%    100.00% # Number of instructions issued per FU type, per thread (Count)
system.cpu.statIssuedInstType_0::total       44438136                       # Number of instructions issued per FU type, per thread (Count)
system.cpu.issueRate                         1.071910                       # Inst issue rate ((Count/Cycle))
system.cpu.fuBusy                              161041                       # FU busy when requested (Count)
system.cpu.fuBusyRate                        0.003624                       # FU busy rate (busy events/executed inst) ((Count/Count))
system.cpu.intInstQueueReads                126428004                       # Number of integer instruction queue reads (Count)
system.cpu.intInstQueueWrites                52342379                       # Number of integer instruction queue writes (Count)
system.cpu.intInstQueueWakeupAccesses        42940689                       # Number of integer instruction queue wakeup accesses (Count)
system.cpu.fpInstQueueReads                   1735722                       # Number of floating instruction queue reads (Count)
system.cpu.fpInstQueueWrites                   815047                       # Number of floating instruction queue writes (Count)
system.cpu.fpInstQueueWakeupAccesses           815001                       # Number of floating instruction queue wakeup accesses (Count)
system.cpu.vecInstQueueReads                        0                       # Number of vector instruction queue reads (Count)
system.cpu.vecInstQueueWrites                       0                       # Number of vector instruction queue writes (Count)
system.cpu.vecInstQueueWakeupAccesses               0                       # Number of vector instruction queue wakeup accesses (Count)
system.cpu.intAluAccesses                    43624041                       # Number of integer alu accesses (Count)
system.cpu.fpAluAccesses                       920719                       # Number of floating point alu accesses (Count)
system.cpu.vecAluAccesses                           0                       # Number of vector alu accesses (Count)
system.cpu.numInsts                          44122410                       # Number of executed instructions (Count)
system.cpu.numLoadInsts                       8287019                       # Number of load instructions executed (Count)
system.cpu.numSquashedInsts                    315725                       # Number of squashed instructions skipped in execute (Count)
system.cpu.numSwp                                   0                       # Number of swp insts executed (Count)
system.cpu.numNop                                   0                       # Number of nop insts executed (Count)
system.cpu.numRefs                           11687702                       # Number of memory reference insts executed (Count)
system.cpu.numBranches                        4132200                       # Number of branches executed (Count)
system.cpu.numStoreInsts                      3400683                       # Number of stores executed (Count)
system.cpu.numRate                           1.064294                       # Inst execution rate ((Count/Cycle))
system.cpu.timesIdled                          758811                       # Number of times that the entire CPU went into an idle state and unscheduled itself (Count)
system.cpu.idleCycles                         2331504                       # Total number of cycles that the CPU has spent unscheduled due to idling (Cycle)
system.cpu.committedInsts                    21343836                       # Number of Instructions Simulated (Count)
system.cpu.committedOps                      39396425                       # Number of Ops (including micro ops) Simulated (Count)
system.cpu.cpi                               1.942340                       # CPI: Cycles Per Instruction ((Cycle/Count))
system.cpu.totalCpi                          1.942340                       # CPI: Total CPI of All Threads ((Cycle/Count))
system.cpu.ipc                               0.514843                       # IPC: Instructions Per Cycle ((Count/Cycle))
system.cpu.totalIpc                          0.514843                       # IPC: Total IPC of All Threads ((Count/Cycle))
system.cpu.intRegfileReads                   55446128                       # Number of integer regfile reads (Count)
system.cpu.intRegfileWrites                  33015998                       # Number of integer regfile writes (Count)
system.cpu.fpRegfileReads                     1452597                       # Number of floating regfile reads (Count)
system.cpu.fpRegfileWrites                     673182                       # Number of floating regfile writes (Count)
system.cpu.ccRegfileReads                    20101217                       # number of cc regfile reads (Count)
system.cpu.ccRegfileWrites                   13657325                       # number of cc regfile writes (Count)
system.cpu.miscRegfileReads                  20325476                       # number of misc regfile reads (Count)
system.cpu.miscRegfileWrites                       18                       # number of misc regfile writes (Count)
system.cpu.MemDepUnit__0.insertedLoads        8813102                       # Number of loads inserted to the mem dependence unit. (Count)
system.cpu.MemDepUnit__0.insertedStores       3676656                       # Number of stores inserted to the mem dependence unit. (Count)
system.cpu.MemDepUnit__0.conflictingLoads      1298395                       # Number of conflicting loads. (Count)
system.cpu.MemDepUnit__0.conflictingStores       198086                       # Number of conflicting stores. (Count)
system.cpu.MemDepUnit__1.insertedLoads              0                       # Number of loads inserted to the mem dependence unit. (Count)
system.cpu.MemDepUnit__1.insertedStores             0                       # Number of stores inserted to the mem dependence unit. (Count)
system.cpu.MemDepUnit__1.conflictingLoads            0                       # Number of conflicting loads. (Count)
system.cpu.MemDepUnit__1.conflictingStores            0                       # Number of conflicting stores. (Count)
system.cpu.MemDepUnit__2.insertedLoads              0                       # Number of loads inserted to the mem dependence unit. (Count)
system.cpu.MemDepUnit__2.insertedStores             0                       # Number of stores inserted to the mem dependence unit. (Count)
system.cpu.MemDepUnit__2.conflictingLoads            0                       # Number of conflicting loads. (Count)
system.cpu.MemDepUnit__2.conflictingStores            0                       # Number of conflicting stores. (Count)
system.cpu.MemDepUnit__3.insertedLoads              0                       # Number of loads inserted to the mem dependence unit. (Count)
system.cpu.MemDepUnit__3.insertedStores             0                       # Number of stores inserted to the mem dependence unit. (Count)
system.cpu.MemDepUnit__3.conflictingLoads            0                       # Number of conflicting loads. (Count)
system.cpu.MemDepUnit__3.conflictingStores            0                       # Number of conflicting stores. (Count)
system.cpu.branchPred.lookups                 4848939                       # Number of BP lookups (Count)
system.cpu.branchPred.condPredicted           3659071                       # Number of conditional branches predicted (Count)
system.cpu.branchPred.condIncorrect            248338                       # Number of conditional branches incorrect (Count)
system.cpu.branchPred.BTBLookups              2643007                       # Number of BTB lookups (Count)
system.cpu.branchPred.BTBHits                 2587056                       # Number of BTB hits (Count)
system.cpu.branchPred.BTBHitRatio            0.978831                       # BTB Hit Ratio (Ratio)
system.cpu.branchPred.RASUsed                  341313                       # Number of times the RAS was used to get a target. (Count)
system.cpu.branchPred.RASIncorrect                684                       # Number of incorrect RAS predictions. (Count)
system.cpu.branchPred.indirectLookups          160383                       # Number of indirect predictor lookups. (Count)
system.cpu.branchPred.indirectHits             159741                       # Number of indirect target hits. (Count)
system.cpu.branchPred.indirectMisses              642                       # Number of indirect misses. (Count)
system.cpu.branchPred.indirectMispredicted          157                       # Number of mispredicted indirect branches. (Count)
system.cpu.branchPred.loop_predictor.correct      2524752                       # Number of times the loop predictor is the provider and the prediction is correct (Count)
system.cpu.branchPred.loop_predictor.wrong       327682                       # Number of times the loop predictor is the provider and the prediction is wrong (Count)
system.cpu.branchPred.tage.longestMatchProviderCorrect      1165926                       # Number of times TAGE Longest Match is the provider and the prediction is correct (Count)
system.cpu.branchPred.tage.altMatchProviderCorrect        41336                       # Number of times TAGE Alt Match is the provider and the prediction is correct (Count)
system.cpu.branchPred.tage.bimodalAltMatchProviderCorrect          905                       # Number of times TAGE Alt Match is the bimodal and it is the provider and the prediction is correct (Count)
system.cpu.branchPred.tage.bimodalProviderCorrect      1480754                       # Number of times there are no hits on the TAGE tables and the bimodal prediction is correct (Count)
system.cpu.branchPred.tage.longestMatchProviderWrong       106728                       # Number of times TAGE Longest Match is the provider and the prediction is wrong (Count)
system.cpu.branchPred.tage.altMatchProviderWrong        28050                       # Number of times TAGE Alt Match is the provider and the prediction is wrong (Count)
system.cpu.branchPred.tage.bimodalAltMatchProviderWrong          352                       # Number of times TAGE Alt Match is the bimodal and it is the provider and the prediction is wrong (Count)
system.cpu.branchPred.tage.bimodalProviderWrong          896                       # Number of times there are no hits on the TAGE tables and the bimodal prediction is wrong (Count)
system.cpu.branchPred.tage.altMatchProviderWouldHaveHit        34178                       # Number of times TAGE Longest Match is the provider, the prediction is wrong and Alt Match prediction was correct (Count)
system.cpu.branchPred.tage.longestMatchProviderWouldHaveHit        15384                       # Number of times TAGE Alt Match is the provider, the prediction is wrong and Longest Match prediction was correct (Count)
system.cpu.branchPred.tage.longestMatchProvider::0            0                       # TAGE provider for longest match (Count)
system.cpu.branchPred.tage.longestMatchProvider::1       397154                       # TAGE provider for longest match (Count)
system.cpu.branchPred.tage.longestMatchProvider::2       203454                       # TAGE provider for longest match (Count)
system.cpu.branchPred.tage.longestMatchProvider::3       329298                       # TAGE provider for longest match (Count)
system.cpu.branchPred.tage.longestMatchProvider::4       224288                       # TAGE provider for longest match (Count)
system.cpu.branchPred.tage.longestMatchProvider::5        63212                       # TAGE provider for longest match (Count)
system.cpu.branchPred.tage.longestMatchProvider::6        38602                       # TAGE provider for longest match (Count)
system.cpu.branchPred.tage.longestMatchProvider::7         9402                       # TAGE provider for longest match (Count)
system.cpu.branchPred.tage.longestMatchProvider::8        10021                       # TAGE provider for longest match (Count)
system.cpu.branchPred.tage.longestMatchProvider::9        28382                       # TAGE provider for longest match (Count)
system.cpu.branchPred.tage.longestMatchProvider::10        17282                       # TAGE provider for longest match (Count)
system.cpu.branchPred.tage.longestMatchProvider::11        11045                       # TAGE provider for longest match (Count)
system.cpu.branchPred.tage.longestMatchProvider::12         9900                       # TAGE provider for longest match (Count)
system.cpu.branchPred.tage.altMatchProvider::0       736204                       # TAGE provider for alt match (Count)
system.cpu.branchPred.tage.altMatchProvider::1        46829                       # TAGE provider for alt match (Count)
system.cpu.branchPred.tage.altMatchProvider::2       207575                       # TAGE provider for alt match (Count)
system.cpu.branchPred.tage.altMatchProvider::3       211863                       # TAGE provider for alt match (Count)
system.cpu.branchPred.tage.altMatchProvider::4        51586                       # TAGE provider for alt match (Count)
system.cpu.branchPred.tage.altMatchProvider::5        22871                       # TAGE provider for alt match (Count)
system.cpu.branchPred.tage.altMatchProvider::6        13961                       # TAGE provider for alt match (Count)
system.cpu.branchPred.tage.altMatchProvider::7         2834                       # TAGE provider for alt match (Count)
system.cpu.branchPred.tage.altMatchProvider::8        13780                       # TAGE provider for alt match (Count)
system.cpu.branchPred.tage.altMatchProvider::9        16239                       # TAGE provider for alt match (Count)
system.cpu.branchPred.tage.altMatchProvider::10        10997                       # TAGE provider for alt match (Count)
system.cpu.branchPred.tage.altMatchProvider::11         7301                       # TAGE provider for alt match (Count)
system.cpu.branchPred.tage.altMatchProvider::12            0                       # TAGE provider for alt match (Count)
system.cpu.commit.commitSquashedInsts         6331088                       # The number of squashed insts skipped by commit (Count)
system.cpu.commit.commitNonSpecStalls              18                       # The number of times commit has been forced to stall to communicate backwards (Count)
system.cpu.commit.branchMispredicts            195083                       # The number of times a branch was mispredicted (Count)
system.cpu.commit.numCommittedDist::samples     38223817                       # Number of insts commited each cycle (Count)
system.cpu.commit.numCommittedDist::mean     1.030677                       # Number of insts commited each cycle (Count)
system.cpu.commit.numCommittedDist::stdev     1.780495                       # Number of insts commited each cycle (Count)
system.cpu.commit.numCommittedDist::underflows            0      0.00%      0.00% # Number of insts commited each cycle (Count)
system.cpu.commit.numCommittedDist::0        24597618     64.35%     64.35% # Number of insts commited each cycle (Count)
system.cpu.commit.numCommittedDist::1         4554798     11.92%     76.27% # Number of insts commited each cycle (Count)
system.cpu.commit.numCommittedDist::2         2376354      6.22%     82.48% # Number of insts commited each cycle (Count)
system.cpu.commit.numCommittedDist::3         2661062      6.96%     89.45% # Number of insts commited each cycle (Count)
system.cpu.commit.numCommittedDist::4          813698      2.13%     91.58% # Number of insts commited each cycle (Count)
system.cpu.commit.numCommittedDist::5          470781      1.23%     92.81% # Number of insts commited each cycle (Count)
system.cpu.commit.numCommittedDist::6         2749506      7.19%    100.00% # Number of insts commited each cycle (Count)
system.cpu.commit.numCommittedDist::overflows            0      0.00%    100.00% # Number of insts commited each cycle (Count)
system.cpu.commit.numCommittedDist::min_value            0                       # Number of insts commited each cycle (Count)
system.cpu.commit.numCommittedDist::max_value            6                       # Number of insts commited each cycle (Count)
system.cpu.commit.numCommittedDist::total     38223817                       # Number of insts commited each cycle (Count)
system.cpu.commit.instsCommitted             21343836                       # Number of instructions committed (Count)
system.cpu.commit.opsCommitted               39396425                       # Number of ops (including micro ops) committed (Count)
system.cpu.commit.memRefs                     9984452                       # Number of memory references committed (Count)
system.cpu.commit.loads                       6778153                       # Number of loads committed (Count)
system.cpu.commit.amos                              0                       # Number of atomic instructions committed (Count)
system.cpu.commit.membars                           0                       # Number of memory barriers committed (Count)
system.cpu.commit.branches                    3853625                       # Number of branches committed (Count)
system.cpu.commit.vectorInstructions                0                       # Number of committed Vector instructions. (Count)
system.cpu.commit.floating                     814975                       # Number of committed floating point instructions. (Count)
system.cpu.commit.integer                    38702115                       # Number of committed integer instructions. (Count)
system.cpu.commit.functionCalls                304177                       # Number of function calls committed. (Count)
system.cpu.commit.committedInstType_0::No_OpClass        53708      0.14%      0.14% # Class of committed instruction (Count)
system.cpu.commit.committedInstType_0::IntAlu     28464930     72.25%     72.39% # Class of committed instruction (Count)
system.cpu.commit.committedInstType_0::IntMult       128911      0.33%     72.72% # Class of committed instruction (Count)
system.cpu.commit.committedInstType_0::IntDiv       126710      0.32%     73.04% # Class of committed instruction (Count)
system.cpu.commit.committedInstType_0::FloatAdd        35441      0.09%     73.13% # Class of committed instruction (Count)
system.cpu.commit.committedInstType_0::FloatCmp            0      0.00%     73.13% # Class of committed instruction (Count)
system.cpu.commit.committedInstType_0::FloatCvt           32      0.00%     73.13% # Class of committed instruction (Count)
system.cpu.commit.committedInstType_0::FloatMult            0      0.00%     73.13% # Class of committed instruction (Count)
system.cpu.commit.committedInstType_0::FloatMultAcc            0      0.00%     73.13% # Class of committed instruction (Count)
system.cpu.commit.committedInstType_0::FloatDiv            0      0.00%     73.13% # Class of committed instruction (Count)
system.cpu.commit.committedInstType_0::FloatMisc            0      0.00%     73.13% # Class of committed instruction (Count)
system.cpu.commit.committedInstType_0::FloatSqrt            0      0.00%     73.13% # Class of committed instruction (Count)
system.cpu.commit.committedInstType_0::SimdAdd            0      0.00%     73.13% # Class of committed instruction (Count)
system.cpu.commit.committedInstType_0::SimdAddAcc            0      0.00%     73.13% # Class of committed instruction (Count)
system.cpu.commit.committedInstType_0::SimdAlu        70850      0.18%     73.31% # Class of committed instruction (Count)
system.cpu.commit.committedInstType_0::SimdCmp            0      0.00%     73.31% # Class of committed instruction (Count)
system.cpu.commit.committedInstType_0::SimdCvt       141708      0.36%     73.67% # Class of committed instruction (Count)
system.cpu.commit.committedInstType_0::SimdMisc       389683      0.99%     74.66% # Class of committed instruction (Count)
system.cpu.commit.committedInstType_0::SimdMult            0      0.00%     74.66% # Class of committed instruction (Count)
system.cpu.commit.committedInstType_0::SimdMultAcc            0      0.00%     74.66% # Class of committed instruction (Count)
system.cpu.commit.committedInstType_0::SimdShift            0      0.00%     74.66% # Class of committed instruction (Count)
system.cpu.commit.committedInstType_0::SimdShiftAcc            0      0.00%     74.66% # Class of committed instruction (Count)
system.cpu.commit.committedInstType_0::SimdDiv            0      0.00%     74.66% # Class of committed instruction (Count)
system.cpu.commit.committedInstType_0::SimdSqrt            0      0.00%     74.66% # Class of committed instruction (Count)
system.cpu.commit.committedInstType_0::SimdFloatAdd            0      0.00%     74.66% # Class of committed instruction (Count)
system.cpu.commit.committedInstType_0::SimdFloatAlu            0      0.00%     74.66% # Class of committed instruction (Count)
system.cpu.commit.committedInstType_0::SimdFloatCmp            0      0.00%     74.66% # Class of committed instruction (Count)
system.cpu.commit.committedInstType_0::SimdFloatCvt            0      0.00%     74.66% # Class of committed instruction (Count)
system.cpu.commit.committedInstType_0::SimdFloatDiv            0      0.00%     74.66% # Class of committed instruction (Count)
system.cpu.commit.committedInstType_0::SimdFloatMisc            0      0.00%     74.66% # Class of committed instruction (Count)
system.cpu.commit.committedInstType_0::SimdFloatMult            0      0.00%     74.66% # Class of committed instruction (Count)
system.cpu.commit.committedInstType_0::SimdFloatMultAcc            0      0.00%     74.66% # Class of committed instruction (Count)
system.cpu.commit.committedInstType_0::SimdFloatSqrt            0      0.00%     74.66% # Class of committed instruction (Count)
system.cpu.commit.committedInstType_0::SimdReduceAdd            0      0.00%     74.66% # Class of committed instruction (Count)
system.cpu.commit.committedInstType_0::SimdReduceAlu            0      0.00%     74.66% # Class of committed instruction (Count)
system.cpu.commit.committedInstType_0::SimdReduceCmp            0      0.00%     74.66% # Class of committed instruction (Count)
system.cpu.commit.committedInstType_0::SimdFloatReduceAdd            0      0.00%     74.66% # Class of committed instruction (Count)
system.cpu.commit.committedInstType_0::SimdFloatReduceCmp            0      0.00%     74.66% # Class of committed instruction (Count)
system.cpu.commit.committedInstType_0::SimdAes            0      0.00%     74.66% # Class of committed instruction (Count)
system.cpu.commit.committedInstType_0::SimdAesMix            0      0.00%     74.66% # Class of committed instruction (Count)
system.cpu.commit.committedInstType_0::SimdSha1Hash            0      0.00%     74.66% # Class of committed instruction (Count)
system.cpu.commit.committedInstType_0::SimdSha1Hash2            0      0.00%     74.66% # Class of committed instruction (Count)
system.cpu.commit.committedInstType_0::SimdSha256Hash            0      0.00%     74.66% # Class of committed instruction (Count)
system.cpu.commit.committedInstType_0::SimdSha256Hash2            0      0.00%     74.66% # Class of committed instruction (Count)
system.cpu.commit.committedInstType_0::SimdShaSigma2            0      0.00%     74.66% # Class of committed instruction (Count)
system.cpu.commit.committedInstType_0::SimdShaSigma3            0      0.00%     74.66% # Class of committed instruction (Count)
system.cpu.commit.committedInstType_0::SimdPredAlu            0      0.00%     74.66% # Class of committed instruction (Count)
system.cpu.commit.committedInstType_0::MemRead      6707235     17.02%     91.68% # Class of committed instruction (Count)
system.cpu.commit.committedInstType_0::MemWrite      3206235      8.14%     99.82% # Class of committed instruction (Count)
system.cpu.commit.committedInstType_0::FloatMemRead        70918      0.18%    100.00% # Class of committed instruction (Count)
system.cpu.commit.committedInstType_0::FloatMemWrite           64      0.00%    100.00% # Class of committed instruction (Count)
system.cpu.commit.committedInstType_0::IprAccess            0      0.00%    100.00% # Class of committed instruction (Count)
system.cpu.commit.committedInstType_0::InstPrefetch            0      0.00%    100.00% # Class of committed instruction (Count)
system.cpu.commit.committedInstType_0::total     39396425                       # Class of committed instruction (Count)
system.cpu.commit.commitEligibleSamples       2749506                       # number cycles where commit BW limit reached (Cycle)
system.cpu.dcache.demandHits::cpu.data        9563180                       # number of demand (read+write) hits (Count)
system.cpu.dcache.demandHits::total           9563180                       # number of demand (read+write) hits (Count)
system.cpu.dcache.overallHits::cpu.data       9563180                       # number of overall hits (Count)
system.cpu.dcache.overallHits::total          9563180                       # number of overall hits (Count)
system.cpu.dcache.demandMisses::cpu.data       138245                       # number of demand (read+write) misses (Count)
system.cpu.dcache.demandMisses::total          138245                       # number of demand (read+write) misses (Count)
system.cpu.dcache.overallMisses::cpu.data       138245                       # number of overall misses (Count)
system.cpu.dcache.overallMisses::total         138245                       # number of overall misses (Count)
system.cpu.dcache.demandMissLatency::cpu.data   2594925497                       # number of demand (read+write) miss ticks (Tick)
system.cpu.dcache.demandMissLatency::total   2594925497                       # number of demand (read+write) miss ticks (Tick)
system.cpu.dcache.overallMissLatency::cpu.data   2594925497                       # number of overall miss ticks (Tick)
system.cpu.dcache.overallMissLatency::total   2594925497                       # number of overall miss ticks (Tick)
system.cpu.dcache.demandAccesses::cpu.data      9701425                       # number of demand (read+write) accesses (Count)
system.cpu.dcache.demandAccesses::total       9701425                       # number of demand (read+write) accesses (Count)
system.cpu.dcache.overallAccesses::cpu.data      9701425                       # number of overall (read+write) accesses (Count)
system.cpu.dcache.overallAccesses::total      9701425                       # number of overall (read+write) accesses (Count)
system.cpu.dcache.demandMissRate::cpu.data     0.014250                       # miss rate for demand accesses (Ratio)
system.cpu.dcache.demandMissRate::total      0.014250                       # miss rate for demand accesses (Ratio)
system.cpu.dcache.overallMissRate::cpu.data     0.014250                       # miss rate for overall accesses (Ratio)
system.cpu.dcache.overallMissRate::total     0.014250                       # miss rate for overall accesses (Ratio)
system.cpu.dcache.demandAvgMissLatency::cpu.data 18770.483540                       # average overall miss latency in ticks ((Tick/Count))
system.cpu.dcache.demandAvgMissLatency::total 18770.483540                       # average overall miss latency in ticks ((Tick/Count))
system.cpu.dcache.overallAvgMissLatency::cpu.data 18770.483540                       # average overall miss latency ((Tick/Count))
system.cpu.dcache.overallAvgMissLatency::total 18770.483540                       # average overall miss latency ((Tick/Count))
system.cpu.dcache.blockedCycles::no_mshrs        19845                       # number of cycles access was blocked (Cycle)
system.cpu.dcache.blockedCycles::no_targets            0                       # number of cycles access was blocked (Cycle)
system.cpu.dcache.blockedCauses::no_mshrs          458                       # number of times access was blocked (Count)
system.cpu.dcache.blockedCauses::no_targets            0                       # number of times access was blocked (Count)
system.cpu.dcache.avgBlocked::no_mshrs      43.329694                       # average number of cycles each access was blocked ((Cycle/Count))
system.cpu.dcache.avgBlocked::no_targets          nan                       # average number of cycles each access was blocked ((Cycle/Count))
system.cpu.dcache.writebacks::writebacks        38854                       # number of writebacks (Count)
system.cpu.dcache.writebacks::total             38854                       # number of writebacks (Count)
system.cpu.dcache.demandMshrHits::cpu.data        48618                       # number of demand (read+write) MSHR hits (Count)
system.cpu.dcache.demandMshrHits::total         48618                       # number of demand (read+write) MSHR hits (Count)
system.cpu.dcache.overallMshrHits::cpu.data        48618                       # number of overall MSHR hits (Count)
system.cpu.dcache.overallMshrHits::total        48618                       # number of overall MSHR hits (Count)
system.cpu.dcache.demandMshrMisses::cpu.data        89627                       # number of demand (read+write) MSHR misses (Count)
system.cpu.dcache.demandMshrMisses::total        89627                       # number of demand (read+write) MSHR misses (Count)
system.cpu.dcache.overallMshrMisses::cpu.data        89627                       # number of overall MSHR misses (Count)
system.cpu.dcache.overallMshrMisses::total        89627                       # number of overall MSHR misses (Count)
system.cpu.dcache.demandMshrMissLatency::cpu.data   1402438497                       # number of demand (read+write) MSHR miss ticks (Tick)
system.cpu.dcache.demandMshrMissLatency::total   1402438497                       # number of demand (read+write) MSHR miss ticks (Tick)
system.cpu.dcache.overallMshrMissLatency::cpu.data   1402438497                       # number of overall MSHR miss ticks (Tick)
system.cpu.dcache.overallMshrMissLatency::total   1402438497                       # number of overall MSHR miss ticks (Tick)
system.cpu.dcache.demandMshrMissRate::cpu.data     0.009239                       # mshr miss ratio for demand accesses (Ratio)
system.cpu.dcache.demandMshrMissRate::total     0.009239                       # mshr miss ratio for demand accesses (Ratio)
system.cpu.dcache.overallMshrMissRate::cpu.data     0.009239                       # mshr miss ratio for overall accesses (Ratio)
system.cpu.dcache.overallMshrMissRate::total     0.009239                       # mshr miss ratio for overall accesses (Ratio)
system.cpu.dcache.demandAvgMshrMissLatency::cpu.data 15647.500162                       # average overall mshr miss latency ((Tick/Count))
system.cpu.dcache.demandAvgMshrMissLatency::total 15647.500162                       # average overall mshr miss latency ((Tick/Count))
system.cpu.dcache.overallAvgMshrMissLatency::cpu.data 15647.500162                       # average overall mshr miss latency ((Tick/Count))
system.cpu.dcache.overallAvgMshrMissLatency::total 15647.500162                       # average overall mshr miss latency ((Tick/Count))
system.cpu.dcache.replacements                  89563                       # number of replacements (Count)
system.cpu.dcache.ReadReq.hits::cpu.data      6376051                       # number of ReadReq hits (Count)
system.cpu.dcache.ReadReq.hits::total         6376051                       # number of ReadReq hits (Count)
system.cpu.dcache.ReadReq.misses::cpu.data       119073                       # number of ReadReq misses (Count)
system.cpu.dcache.ReadReq.misses::total        119073                       # number of ReadReq misses (Count)
system.cpu.dcache.ReadReq.missLatency::cpu.data   2222545500                       # number of ReadReq miss ticks (Tick)
system.cpu.dcache.ReadReq.missLatency::total   2222545500                       # number of ReadReq miss ticks (Tick)
system.cpu.dcache.ReadReq.accesses::cpu.data      6495124                       # number of ReadReq accesses(hits+misses) (Count)
system.cpu.dcache.ReadReq.accesses::total      6495124                       # number of ReadReq accesses(hits+misses) (Count)
system.cpu.dcache.ReadReq.missRate::cpu.data     0.018333                       # miss rate for ReadReq accesses (Ratio)
system.cpu.dcache.ReadReq.missRate::total     0.018333                       # miss rate for ReadReq accesses (Ratio)
system.cpu.dcache.ReadReq.avgMissLatency::cpu.data 18665.402736                       # average ReadReq miss latency ((Tick/Count))
system.cpu.dcache.ReadReq.avgMissLatency::total 18665.402736                       # average ReadReq miss latency ((Tick/Count))
system.cpu.dcache.ReadReq.mshrHits::cpu.data        48579                       # number of ReadReq MSHR hits (Count)
system.cpu.dcache.ReadReq.mshrHits::total        48579                       # number of ReadReq MSHR hits (Count)
system.cpu.dcache.ReadReq.mshrMisses::cpu.data        70494                       # number of ReadReq MSHR misses (Count)
system.cpu.dcache.ReadReq.mshrMisses::total        70494                       # number of ReadReq MSHR misses (Count)
system.cpu.dcache.ReadReq.mshrMissLatency::cpu.data   1050323500                       # number of ReadReq MSHR miss ticks (Tick)
system.cpu.dcache.ReadReq.mshrMissLatency::total   1050323500                       # number of ReadReq MSHR miss ticks (Tick)
system.cpu.dcache.ReadReq.mshrMissRate::cpu.data     0.010853                       # mshr miss rate for ReadReq accesses (Ratio)
system.cpu.dcache.ReadReq.mshrMissRate::total     0.010853                       # mshr miss rate for ReadReq accesses (Ratio)
system.cpu.dcache.ReadReq.avgMshrMissLatency::cpu.data 14899.473714                       # average ReadReq mshr miss latency ((Tick/Count))
system.cpu.dcache.ReadReq.avgMshrMissLatency::total 14899.473714                       # average ReadReq mshr miss latency ((Tick/Count))
system.cpu.dcache.WriteReq.hits::cpu.data      3187129                       # number of WriteReq hits (Count)
system.cpu.dcache.WriteReq.hits::total        3187129                       # number of WriteReq hits (Count)
system.cpu.dcache.WriteReq.misses::cpu.data        19172                       # number of WriteReq misses (Count)
system.cpu.dcache.WriteReq.misses::total        19172                       # number of WriteReq misses (Count)
system.cpu.dcache.WriteReq.missLatency::cpu.data    372379997                       # number of WriteReq miss ticks (Tick)
system.cpu.dcache.WriteReq.missLatency::total    372379997                       # number of WriteReq miss ticks (Tick)
system.cpu.dcache.WriteReq.accesses::cpu.data      3206301                       # number of WriteReq accesses(hits+misses) (Count)
system.cpu.dcache.WriteReq.accesses::total      3206301                       # number of WriteReq accesses(hits+misses) (Count)
system.cpu.dcache.WriteReq.missRate::cpu.data     0.005979                       # miss rate for WriteReq accesses (Ratio)
system.cpu.dcache.WriteReq.missRate::total     0.005979                       # miss rate for WriteReq accesses (Ratio)
system.cpu.dcache.WriteReq.avgMissLatency::cpu.data 19423.116889                       # average WriteReq miss latency ((Tick/Count))
system.cpu.dcache.WriteReq.avgMissLatency::total 19423.116889                       # average WriteReq miss latency ((Tick/Count))
system.cpu.dcache.WriteReq.mshrHits::cpu.data           39                       # number of WriteReq MSHR hits (Count)
system.cpu.dcache.WriteReq.mshrHits::total           39                       # number of WriteReq MSHR hits (Count)
system.cpu.dcache.WriteReq.mshrMisses::cpu.data        19133                       # number of WriteReq MSHR misses (Count)
system.cpu.dcache.WriteReq.mshrMisses::total        19133                       # number of WriteReq MSHR misses (Count)
system.cpu.dcache.WriteReq.mshrMissLatency::cpu.data    352114997                       # number of WriteReq MSHR miss ticks (Tick)
system.cpu.dcache.WriteReq.mshrMissLatency::total    352114997                       # number of WriteReq MSHR miss ticks (Tick)
system.cpu.dcache.WriteReq.mshrMissRate::cpu.data     0.005967                       # mshr miss rate for WriteReq accesses (Ratio)
system.cpu.dcache.WriteReq.mshrMissRate::total     0.005967                       # mshr miss rate for WriteReq accesses (Ratio)
system.cpu.dcache.WriteReq.avgMshrMissLatency::cpu.data 18403.543459                       # average WriteReq mshr miss latency ((Tick/Count))
system.cpu.dcache.WriteReq.avgMshrMissLatency::total 18403.543459                       # average WriteReq mshr miss latency ((Tick/Count))
system.cpu.dcache.power_state.pwrStateResidencyTicks::UNDEFINED  20728491500                       # Cumulative time (in ticks) in various power states (Tick)
system.cpu.dcache.tags.tagsInUse            63.991266                       # Average ticks per tags in use ((Tick/Count))
system.cpu.dcache.tags.totalRefs              9652807                       # Total number of references to valid blocks. (Count)
system.cpu.dcache.tags.sampledRefs              89627                       # Sample count of references to valid blocks. (Count)
system.cpu.dcache.tags.avgRefs             107.699767                       # Average number of references to valid blocks. ((Count/Count))
system.cpu.dcache.tags.warmupTick            11498500                       # The tick when the warmup percentage was hit. (Tick)
system.cpu.dcache.tags.occupancies::cpu.data    63.991266                       # Average occupied blocks per tick, per requestor ((Count/Tick))
system.cpu.dcache.tags.avgOccs::cpu.data     0.999864                       # Average percentage of cache occupancy ((Ratio/Tick))
system.cpu.dcache.tags.avgOccs::total        0.999864                       # Average percentage of cache occupancy ((Ratio/Tick))
system.cpu.dcache.tags.occupanciesTaskId::1024           64                       # Occupied blocks per task id (Count)
system.cpu.dcache.tags.ageTaskId_1024::0           46                       # Occupied blocks per task id, per block age (Count)
system.cpu.dcache.tags.ageTaskId_1024::1            2                       # Occupied blocks per task id, per block age (Count)
system.cpu.dcache.tags.ageTaskId_1024::2           12                       # Occupied blocks per task id, per block age (Count)
system.cpu.dcache.tags.ageTaskId_1024::3            4                       # Occupied blocks per task id, per block age (Count)
system.cpu.dcache.tags.ratioOccsTaskId::1024            1                       # Ratio of occupied blocks and all blocks, per task id (Ratio)
system.cpu.dcache.tags.tagAccesses           19492477                       # Number of tag accesses (Count)
system.cpu.dcache.tags.dataAccesses          19492477                       # Number of data accesses (Count)
system.cpu.dcache.tags.power_state.pwrStateResidencyTicks::UNDEFINED  20728491500                       # Cumulative time (in ticks) in various power states (Tick)
system.cpu.decode.idleCycles                 26284695                       # Number of cycles decode is idle (Cycle)
system.cpu.decode.blockedCycles               3504765                       # Number of cycles decode is blocked (Cycle)
system.cpu.decode.runCycles                   7593605                       # Number of cycles decode is running (Cycle)
system.cpu.decode.unblockCycles               1529075                       # Number of cycles decode is unblocking (Cycle)
system.cpu.decode.squashCycles                 213340                       # Number of cycles decode is squashing (Cycle)
system.cpu.decode.branchResolved              2399098                       # Number of times decode resolved a branch (Count)
system.cpu.decode.branchMispred                 53599                       # Number of times decode detected a branch misprediction (Count)
system.cpu.decode.decodedInsts               48051484                       # Number of instructions handled by decode (Count)
system.cpu.decode.squashedInsts                214358                       # Number of squashed instructions handled by decode (Count)
system.cpu.fetch.icacheStallCycles           27130929                       # Number of cycles fetch is stalled on an Icache miss (Cycle)
system.cpu.fetch.insts                       29294966                       # Number of instructions fetch has processed (Count)
system.cpu.fetch.branches                     4848939                       # Number of branches that fetch encountered (Count)
system.cpu.fetch.predictedBranches            3088110                       # Number of branches that fetch has predicted taken (Count)
system.cpu.fetch.cycles                      11724981                       # Number of cycles fetch has run and was not squashing or blocked (Cycle)
system.cpu.fetch.squashCycles                  533860                       # Number of cycles fetch has spent squashing (Cycle)
system.cpu.fetch.miscStallCycles                  349                       # Number of cycles fetch has spent waiting on interrupts, or bad addresses, or out of MSHRs (Cycle)
system.cpu.fetch.pendingTrapStallCycles          2272                       # Number of stall cycles due to pending traps (Cycle)
system.cpu.fetch.icacheWaitRetryStallCycles           19                       # Number of stall cycles due to full MSHR (Cycle)
system.cpu.fetch.cacheLines                   4077970                       # Number of cache lines fetched (Count)
system.cpu.fetch.icacheSquashes                129712                       # Number of outstanding Icache misses that were squashed (Count)
system.cpu.fetch.nisnDist::samples           39125480                       # Number of instructions fetched each cycle (Total) (Count)
system.cpu.fetch.nisnDist::mean              1.322892                       # Number of instructions fetched each cycle (Total) (Count)
system.cpu.fetch.nisnDist::stdev             2.345135                       # Number of instructions fetched each cycle (Total) (Count)
system.cpu.fetch.nisnDist::underflows               0      0.00%      0.00% # Number of instructions fetched each cycle (Total) (Count)
system.cpu.fetch.nisnDist::0                 28770390     73.53%     73.53% # Number of instructions fetched each cycle (Total) (Count)
system.cpu.fetch.nisnDist::1                   571194      1.46%     74.99% # Number of instructions fetched each cycle (Total) (Count)
system.cpu.fetch.nisnDist::2                   468757      1.20%     76.19% # Number of instructions fetched each cycle (Total) (Count)
system.cpu.fetch.nisnDist::3                  1049050      2.68%     78.87% # Number of instructions fetched each cycle (Total) (Count)
system.cpu.fetch.nisnDist::4                   805518      2.06%     80.93% # Number of instructions fetched each cycle (Total) (Count)
system.cpu.fetch.nisnDist::5                   882587      2.26%     83.19% # Number of instructions fetched each cycle (Total) (Count)
system.cpu.fetch.nisnDist::6                  6577984     16.81%    100.00% # Number of instructions fetched each cycle (Total) (Count)
system.cpu.fetch.nisnDist::overflows                0      0.00%    100.00% # Number of instructions fetched each cycle (Total) (Count)
system.cpu.fetch.nisnDist::min_value                0                       # Number of instructions fetched each cycle (Total) (Count)
system.cpu.fetch.nisnDist::max_value                6                       # Number of instructions fetched each cycle (Total) (Count)
system.cpu.fetch.nisnDist::total             39125480                       # Number of instructions fetched each cycle (Total) (Count)
system.cpu.fetch.branchRate                  0.116963                       # Number of branch fetches per cycle (Ratio)
system.cpu.fetch.rate                        0.706635                       # Number of inst fetches per cycle ((Count/Cycle))
system.cpu.icache.demandHits::cpu.inst        2955703                       # number of demand (read+write) hits (Count)
system.cpu.icache.demandHits::total           2955703                       # number of demand (read+write) hits (Count)
system.cpu.icache.overallHits::cpu.inst       2955703                       # number of overall hits (Count)
system.cpu.icache.overallHits::total          2955703                       # number of overall hits (Count)
system.cpu.icache.demandMisses::cpu.inst      1122267                       # number of demand (read+write) misses (Count)
system.cpu.icache.demandMisses::total         1122267                       # number of demand (read+write) misses (Count)
system.cpu.icache.overallMisses::cpu.inst      1122267                       # number of overall misses (Count)
system.cpu.icache.overallMisses::total        1122267                       # number of overall misses (Count)
system.cpu.icache.demandMissLatency::cpu.inst  14418284500                       # number of demand (read+write) miss ticks (Tick)
system.cpu.icache.demandMissLatency::total  14418284500                       # number of demand (read+write) miss ticks (Tick)
system.cpu.icache.overallMissLatency::cpu.inst  14418284500                       # number of overall miss ticks (Tick)
system.cpu.icache.overallMissLatency::total  14418284500                       # number of overall miss ticks (Tick)
system.cpu.icache.demandAccesses::cpu.inst      4077970                       # number of demand (read+write) accesses (Count)
system.cpu.icache.demandAccesses::total       4077970                       # number of demand (read+write) accesses (Count)
system.cpu.icache.overallAccesses::cpu.inst      4077970                       # number of overall (read+write) accesses (Count)
system.cpu.icache.overallAccesses::total      4077970                       # number of overall (read+write) accesses (Count)
system.cpu.icache.demandMissRate::cpu.inst     0.275202                       # miss rate for demand accesses (Ratio)
system.cpu.icache.demandMissRate::total      0.275202                       # miss rate for demand accesses (Ratio)
system.cpu.icache.overallMissRate::cpu.inst     0.275202                       # miss rate for overall accesses (Ratio)
system.cpu.icache.overallMissRate::total     0.275202                       # miss rate for overall accesses (Ratio)
system.cpu.icache.demandAvgMissLatency::cpu.inst 12847.463661                       # average overall miss latency in ticks ((Tick/Count))
system.cpu.icache.demandAvgMissLatency::total 12847.463661                       # average overall miss latency in ticks ((Tick/Count))
system.cpu.icache.overallAvgMissLatency::cpu.inst 12847.463661                       # average overall miss latency ((Tick/Count))
system.cpu.icache.overallAvgMissLatency::total 12847.463661                       # average overall miss latency ((Tick/Count))
system.cpu.icache.blockedCycles::no_mshrs          154                       # number of cycles access was blocked (Cycle)
system.cpu.icache.blockedCycles::no_targets            0                       # number of cycles access was blocked (Cycle)
system.cpu.icache.blockedCauses::no_mshrs            3                       # number of times access was blocked (Count)
system.cpu.icache.blockedCauses::no_targets            0                       # number of times access was blocked (Count)
system.cpu.icache.avgBlocked::no_mshrs      51.333333                       # average number of cycles each access was blocked ((Cycle/Count))
system.cpu.icache.avgBlocked::no_targets          nan                       # average number of cycles each access was blocked ((Cycle/Count))
system.cpu.icache.demandMshrHits::cpu.inst        25656                       # number of demand (read+write) MSHR hits (Count)
system.cpu.icache.demandMshrHits::total         25656                       # number of demand (read+write) MSHR hits (Count)
system.cpu.icache.overallMshrHits::cpu.inst        25656                       # number of overall MSHR hits (Count)
system.cpu.icache.overallMshrHits::total        25656                       # number of overall MSHR hits (Count)
system.cpu.icache.demandMshrMisses::cpu.inst      1096611                       # number of demand (read+write) MSHR misses (Count)
system.cpu.icache.demandMshrMisses::total      1096611                       # number of demand (read+write) MSHR misses (Count)
system.cpu.icache.overallMshrMisses::cpu.inst      1096611                       # number of overall MSHR misses (Count)
system.cpu.icache.overallMshrMisses::total      1096611                       # number of overall MSHR misses (Count)
system.cpu.icache.demandMshrMissLatency::cpu.inst  13231480500                       # number of demand (read+write) MSHR miss ticks (Tick)
system.cpu.icache.demandMshrMissLatency::total  13231480500                       # number of demand (read+write) MSHR miss ticks (Tick)
system.cpu.icache.overallMshrMissLatency::cpu.inst  13231480500                       # number of overall MSHR miss ticks (Tick)
system.cpu.icache.overallMshrMissLatency::total  13231480500                       # number of overall MSHR miss ticks (Tick)
system.cpu.icache.demandMshrMissRate::cpu.inst     0.268911                       # mshr miss ratio for demand accesses (Ratio)
system.cpu.icache.demandMshrMissRate::total     0.268911                       # mshr miss ratio for demand accesses (Ratio)
system.cpu.icache.overallMshrMissRate::cpu.inst     0.268911                       # mshr miss ratio for overall accesses (Ratio)
system.cpu.icache.overallMshrMissRate::total     0.268911                       # mshr miss ratio for overall accesses (Ratio)
system.cpu.icache.demandAvgMshrMissLatency::cpu.inst 12065.792245                       # average overall mshr miss latency ((Tick/Count))
system.cpu.icache.demandAvgMshrMissLatency::total 12065.792245                       # average overall mshr miss latency ((Tick/Count))
system.cpu.icache.overallAvgMshrMissLatency::cpu.inst 12065.792245                       # average overall mshr miss latency ((Tick/Count))
system.cpu.icache.overallAvgMshrMissLatency::total 12065.792245                       # average overall mshr miss latency ((Tick/Count))
system.cpu.icache.replacements                1096546                       # number of replacements (Count)
system.cpu.icache.ReadReq.hits::cpu.inst      2955703                       # number of ReadReq hits (Count)
system.cpu.icache.ReadReq.hits::total         2955703                       # number of ReadReq hits (Count)
system.cpu.icache.ReadReq.misses::cpu.inst      1122267                       # number of ReadReq misses (Count)
system.cpu.icache.ReadReq.misses::total       1122267                       # number of ReadReq misses (Count)
system.cpu.icache.ReadReq.missLatency::cpu.inst  14418284500                       # number of ReadReq miss ticks (Tick)
system.cpu.icache.ReadReq.missLatency::total  14418284500                       # number of ReadReq miss ticks (Tick)
system.cpu.icache.ReadReq.accesses::cpu.inst      4077970                       # number of ReadReq accesses(hits+misses) (Count)
system.cpu.icache.ReadReq.accesses::total      4077970                       # number of ReadReq accesses(hits+misses) (Count)
system.cpu.icache.ReadReq.missRate::cpu.inst     0.275202                       # miss rate for ReadReq accesses (Ratio)
system.cpu.icache.ReadReq.missRate::total     0.275202                       # miss rate for ReadReq accesses (Ratio)
system.cpu.icache.ReadReq.avgMissLatency::cpu.inst 12847.463661                       # average ReadReq miss latency ((Tick/Count))
system.cpu.icache.ReadReq.avgMissLatency::total 12847.463661                       # average ReadReq miss latency ((Tick/Count))
system.cpu.icache.ReadReq.mshrHits::cpu.inst        25656                       # number of ReadReq MSHR hits (Count)
system.cpu.icache.ReadReq.mshrHits::total        25656                       # number of ReadReq MSHR hits (Count)
system.cpu.icache.ReadReq.mshrMisses::cpu.inst      1096611                       # number of ReadReq MSHR misses (Count)
system.cpu.icache.ReadReq.mshrMisses::total      1096611                       # number of ReadReq MSHR misses (Count)
system.cpu.icache.ReadReq.mshrMissLatency::cpu.inst  13231480500                       # number of ReadReq MSHR miss ticks (Tick)
system.cpu.icache.ReadReq.mshrMissLatency::total  13231480500                       # number of ReadReq MSHR miss ticks (Tick)
system.cpu.icache.ReadReq.mshrMissRate::cpu.inst     0.268911                       # mshr miss rate for ReadReq accesses (Ratio)
system.cpu.icache.ReadReq.mshrMissRate::total     0.268911                       # mshr miss rate for ReadReq accesses (Ratio)
system.cpu.icache.ReadReq.avgMshrMissLatency::cpu.inst 12065.792245                       # average ReadReq mshr miss latency ((Tick/Count))
system.cpu.icache.ReadReq.avgMshrMissLatency::total 12065.792245                       # average ReadReq mshr miss latency ((Tick/Count))
system.cpu.icache.power_state.pwrStateResidencyTicks::UNDEFINED  20728491500                       # Cumulative time (in ticks) in various power states (Tick)
system.cpu.icache.tags.tagsInUse            63.989114                       # Average ticks per tags in use ((Tick/Count))
system.cpu.icache.tags.totalRefs              4052313                       # Total number of references to valid blocks. (Count)
system.cpu.icache.tags.sampledRefs            1096610                       # Sample count of references to valid blocks. (Count)
system.cpu.icache.tags.avgRefs               3.695309                       # Average number of references to valid blocks. ((Count/Count))
system.cpu.icache.tags.warmupTick             7255000                       # The tick when the warmup percentage was hit. (Tick)
system.cpu.icache.tags.occupancies::cpu.inst    63.989114                       # Average occupied blocks per tick, per requestor ((Count/Tick))
system.cpu.icache.tags.avgOccs::cpu.inst     0.999830                       # Average percentage of cache occupancy ((Ratio/Tick))
system.cpu.icache.tags.avgOccs::total        0.999830                       # Average percentage of cache occupancy ((Ratio/Tick))
system.cpu.icache.tags.occupanciesTaskId::1024           64                       # Occupied blocks per task id (Count)
system.cpu.icache.tags.ageTaskId_1024::0           57                       # Occupied blocks per task id, per block age (Count)
system.cpu.icache.tags.ageTaskId_1024::1            1                       # Occupied blocks per task id, per block age (Count)
system.cpu.icache.tags.ageTaskId_1024::3            1                       # Occupied blocks per task id, per block age (Count)
system.cpu.icache.tags.ageTaskId_1024::4            5                       # Occupied blocks per task id, per block age (Count)
system.cpu.icache.tags.ratioOccsTaskId::1024            1                       # Ratio of occupied blocks and all blocks, per task id (Ratio)
system.cpu.icache.tags.tagAccesses            9252550                       # Number of tag accesses (Count)
system.cpu.icache.tags.dataAccesses           9252550                       # Number of data accesses (Count)
system.cpu.icache.tags.power_state.pwrStateResidencyTicks::UNDEFINED  20728491500                       # Cumulative time (in ticks) in various power states (Tick)
system.cpu.iew.idleCycles                           0                       # Number of cycles IEW is idle (Cycle)
system.cpu.iew.squashCycles                    213340                       # Number of cycles IEW is squashing (Cycle)
system.cpu.iew.blockCycles                    1021077                       # Number of cycles IEW is blocking (Cycle)
system.cpu.iew.unblockCycles                    25438                       # Number of cycles IEW is unblocking (Cycle)
system.cpu.iew.dispatchedInsts               46276722                       # Number of instructions dispatched to IQ (Count)
system.cpu.iew.dispSquashedInsts                  669                       # Number of squashed instructions skipped by dispatch (Count)
system.cpu.iew.dispLoadInsts                  8813102                       # Number of dispatched load instructions (Count)
system.cpu.iew.dispStoreInsts                 3676656                       # Number of dispatched store instructions (Count)
system.cpu.iew.dispNonSpecInsts                  6465                       # Number of dispatched non-speculative instructions (Count)
system.cpu.iew.iqFullEvents                      2916                       # Number of times the IQ has become full, causing a stall (Count)
system.cpu.iew.lsqFullEvents                    21407                       # Number of times the LSQ has become full, causing a stall (Count)
system.cpu.iew.memOrderViolationEvents            461                       # Number of memory order violations (Count)
system.cpu.iew.predictedTakenIncorrect         106090                       # Number of branches that were predicted taken incorrectly (Count)
system.cpu.iew.predictedNotTakenIncorrect        97401                       # Number of branches that were predicted not taken incorrectly (Count)
system.cpu.iew.branchMispredicts               203491                       # Number of branch mispredicts detected at execute (Count)
system.cpu.iew.instsToCommit                 43954861                       # Cumulative count of insts sent to commit (Count)
system.cpu.iew.writebackCount                43755690                       # Cumulative count of insts written-back (Count)
system.cpu.iew.producerInst                  31797398                       # Number of instructions producing a value (Count)
system.cpu.iew.consumerInst                  45842316                       # Number of instructions consuming a value (Count)
system.cpu.iew.wbRate                        1.055448                       # Insts written-back per cycle ((Count/Cycle))
system.cpu.iew.wbFanout                      0.693625                       # Average fanout of values written-back ((Count/Count))
system.cpu.interrupts.clk_domain.clock           8000                       # Clock period in ticks (Tick)
system.cpu.lsq0.forwLoads                     1790704                       # Number of loads that had data forwarded from stores (Count)
system.cpu.lsq0.squashedLoads                 2034949                       # Number of loads squashed (Count)
system.cpu.lsq0.ignoredResponses                17660                       # Number of memory responses ignored because the instruction is squashed (Count)
system.cpu.lsq0.memOrderViolation                 461                       # Number of memory ordering violations (Count)
system.cpu.lsq0.squashedStores                 470357                       # Number of stores squashed (Count)
system.cpu.lsq0.rescheduledLoads                  414                       # Number of loads that were rescheduled (Count)
system.cpu.lsq0.blockedByCache                    299                       # Number of times an access to memory failed due to the cache being blocked (Count)
system.cpu.lsq0.loadToUse::samples            6778153                       # Distribution of cycle latency between the first time a load is issued and its completion (Unspecified)
system.cpu.lsq0.loadToUse::mean              3.470637                       # Distribution of cycle latency between the first time a load is issued and its completion (Unspecified)
system.cpu.lsq0.loadToUse::stdev             6.398006                       # Distribution of cycle latency between the first time a load is issued and its completion (Unspecified)
system.cpu.lsq0.loadToUse::0-9                6681342     98.57%     98.57% # Distribution of cycle latency between the first time a load is issued and its completion (Unspecified)
system.cpu.lsq0.loadToUse::10-19                 6924      0.10%     98.67% # Distribution of cycle latency between the first time a load is issued and its completion (Unspecified)
system.cpu.lsq0.loadToUse::20-29                77985      1.15%     99.82% # Distribution of cycle latency between the first time a load is issued and its completion (Unspecified)
system.cpu.lsq0.loadToUse::30-39                 1149      0.02%     99.84% # Distribution of cycle latency between the first time a load is issued and its completion (Unspecified)
system.cpu.lsq0.loadToUse::40-49                  300      0.00%     99.85% # Distribution of cycle latency between the first time a load is issued and its completion (Unspecified)
[...]
system.mem_ctrls.dram.numReads::cpu.inst         1081                       # Number of read requests responded to by this memory (Count)
system.mem_ctrls.dram.numReads::cpu.data         5051                       # Number of read requests responded to by this memory (Count)
system.mem_ctrls.dram.numReads::total            6132                       # Number of read requests responded to by this memory (Count)
system.mem_ctrls.dram.numWrites::writebacks         3432                       # Number of write requests responded to by this memory (Count)
system.mem_ctrls.dram.numWrites::total           3432                       # Number of write requests responded to by this memory (Count)
system.mem_ctrls.dram.bwRead::cpu.inst        3337628                       # Total read bandwidth from this memory ((Byte/Second))
system.mem_ctrls.dram.bwRead::cpu.data       15595153                       # Total read bandwidth from this memory ((Byte/Second))
system.mem_ctrls.dram.bwRead::total          18932781                       # Total read bandwidth from this memory ((Byte/Second))
system.mem_ctrls.dram.bwInstRead::cpu.inst      3337628                       # Instruction read bandwidth from this memory ((Byte/Second))
system.mem_ctrls.dram.bwInstRead::total       3337628                       # Instruction read bandwidth from this memory ((Byte/Second))
system.mem_ctrls.dram.bwWrite::writebacks     10596430                       # Write bandwidth from this memory ((Byte/Second))
system.mem_ctrls.dram.bwWrite::total         10596430                       # Write bandwidth from this memory ((Byte/Second))
system.mem_ctrls.dram.bwTotal::writebacks     10596430                       # Total bandwidth to/from this memory ((Byte/Second))
system.mem_ctrls.dram.bwTotal::cpu.inst       3337628                       # Total bandwidth to/from this memory ((Byte/Second))
system.mem_ctrls.dram.bwTotal::cpu.data      15595153                       # Total bandwidth to/from this memory ((Byte/Second))
system.mem_ctrls.dram.bwTotal::total         29529211                       # Total bandwidth to/from this memory ((Byte/Second))
system.mem_ctrls.dram.readBursts                 6045                       # Number of DRAM read bursts (Count)
system.mem_ctrls.dram.writeBursts                3406                       # Number of DRAM write bursts (Count)
system.mem_ctrls.dram.perBankRdBursts::0          345                       # Per bank write bursts (Count)
system.mem_ctrls.dram.perBankRdBursts::1          344                       # Per bank write bursts (Count)
system.mem_ctrls.dram.perBankRdBursts::2          324                       # Per bank write bursts (Count)
system.mem_ctrls.dram.perBankRdBursts::3          216                       # Per bank write bursts (Count)
system.mem_ctrls.dram.perBankRdBursts::4          157                       # Per bank write bursts (Count)
system.mem_ctrls.dram.perBankRdBursts::5          163                       # Per bank write bursts (Count)
system.mem_ctrls.dram.perBankRdBursts::6          150                       # Per bank write bursts (Count)
system.mem_ctrls.dram.perBankRdBursts::7          128                       # Per bank write bursts (Count)
system.mem_ctrls.dram.perBankRdBursts::8          782                       # Per bank write bursts (Count)
system.mem_ctrls.dram.perBankRdBursts::9          754                       # Per bank write bursts (Count)
system.mem_ctrls.dram.perBankRdBursts::10          883                       # Per bank write bursts (Count)
system.mem_ctrls.dram.perBankRdBursts::11          719                       # Per bank write bursts (Count)
system.mem_ctrls.dram.perBankRdBursts::12          633                       # Per bank write bursts (Count)
system.mem_ctrls.dram.perBankRdBursts::13          103                       # Per bank write bursts (Count)
system.mem_ctrls.dram.perBankRdBursts::14          144                       # Per bank write bursts (Count)
system.mem_ctrls.dram.perBankRdBursts::15          200                       # Per bank write bursts (Count)
system.mem_ctrls.dram.perBankWrBursts::0           81                       # Per bank write bursts (Count)
system.mem_ctrls.dram.perBankWrBursts::1           69                       # Per bank write bursts (Count)
system.mem_ctrls.dram.perBankWrBursts::2          105                       # Per bank write bursts (Count)
system.mem_ctrls.dram.perBankWrBursts::3           88                       # Per bank write bursts (Count)
system.mem_ctrls.dram.perBankWrBursts::4            0                       # Per bank write bursts (Count)
system.mem_ctrls.dram.perBankWrBursts::5            0                       # Per bank write bursts (Count)
system.mem_ctrls.dram.perBankWrBursts::6            2                       # Per bank write bursts (Count)
system.mem_ctrls.dram.perBankWrBursts::7            0                       # Per bank write bursts (Count)
system.mem_ctrls.dram.perBankWrBursts::8          682                       # Per bank write bursts (Count)
system.mem_ctrls.dram.perBankWrBursts::9          684                       # Per bank write bursts (Count)
system.mem_ctrls.dram.perBankWrBursts::10          680                       # Per bank write bursts (Count)
system.mem_ctrls.dram.perBankWrBursts::11          474                       # Per bank write bursts (Count)
system.mem_ctrls.dram.perBankWrBursts::12          441                       # Per bank write bursts (Count)
system.mem_ctrls.dram.perBankWrBursts::13           43                       # Per bank write bursts (Count)
system.mem_ctrls.dram.perBankWrBursts::14            3                       # Per bank write bursts (Count)
system.mem_ctrls.dram.perBankWrBursts::15           54                       # Per bank write bursts (Count)
system.mem_ctrls.dram.totQLat                53790000                       # Total ticks spent queuing (Tick)
system.mem_ctrls.dram.totBusLat              30225000                       # Total ticks spent in databus transfers (Tick)
system.mem_ctrls.dram.totMemAccLat          167133750                       # Total ticks spent from burst creation until serviced by the DRAM (Tick)
system.mem_ctrls.dram.avgQLat                 8898.26                       # Average queueing delay per DRAM burst ((Tick/Count))
system.mem_ctrls.dram.avgBusLat               5000.00                       # Average bus latency per DRAM burst ((Tick/Count))
system.mem_ctrls.dram.avgMemAccLat           27648.26                       # Average memory access latency per DRAM burst ((Tick/Count))
system.mem_ctrls.dram.readRowHits                5155                       # Number of row buffer hits during reads (Count)
system.mem_ctrls.dram.writeRowHits               3079                       # Number of row buffer hits during writes (Count)
system.mem_ctrls.dram.readRowHitRate            85.28                       # Row buffer hit rate for reads (Ratio)
system.mem_ctrls.dram.writeRowHitRate           90.40                       # Row buffer hit rate for writes (Ratio)
system.mem_ctrls.dram.bytesPerActivate::samples         1211                       # Bytes accessed per row activation (Byte)
system.mem_ctrls.dram.bytesPerActivate::mean   497.995045                       # Bytes accessed per row activation (Byte)
system.mem_ctrls.dram.bytesPerActivate::gmean   304.624204                       # Bytes accessed per row activation (Byte)
system.mem_ctrls.dram.bytesPerActivate::stdev   400.809012                       # Bytes accessed per row activation (Byte)
system.mem_ctrls.dram.bytesPerActivate::0-127          287     23.70%     23.70% # Bytes accessed per row activation (Byte)
system.mem_ctrls.dram.bytesPerActivate::128-255          206     17.01%     40.71% # Bytes accessed per row activation (Byte)
system.mem_ctrls.dram.bytesPerActivate::256-383          111      9.17%     49.88% # Bytes accessed per row activation (Byte)
system.mem_ctrls.dram.bytesPerActivate::384-511           66      5.45%     55.33% # Bytes accessed per row activation (Byte)
system.mem_ctrls.dram.bytesPerActivate::512-639           63      5.20%     60.53% # Bytes accessed per row activation (Byte)
system.mem_ctrls.dram.bytesPerActivate::640-767           50      4.13%     64.66% # Bytes accessed per row activation (Byte)
system.mem_ctrls.dram.bytesPerActivate::768-895           35      2.89%     67.55% # Bytes accessed per row activation (Byte)
system.mem_ctrls.dram.bytesPerActivate::896-1023           42      3.47%     71.02% # Bytes accessed per row activation (Byte)
system.mem_ctrls.dram.bytesPerActivate::1024-1151          351     28.98%    100.00% # Bytes accessed per row activation (Byte)
system.mem_ctrls.dram.bytesPerActivate::total         1211                       # Bytes accessed per row activation (Byte)
system.mem_ctrls.dram.bytesRead                386880                       # Total bytes read (Byte)
system.mem_ctrls.dram.bytesWritten             217984                       # Total bytes written (Byte)
system.mem_ctrls.dram.avgRdBW               18.664166                       # Average DRAM read bandwidth in MiBytes/s ((Byte/Second))
system.mem_ctrls.dram.avgWrBW               10.516154                       # Average DRAM write bandwidth in MiBytes/s ((Byte/Second))
system.mem_ctrls.dram.peakBW                 12800.00                       # Theoretical peak bandwidth in MiByte/s ((Byte/Second))
system.mem_ctrls.dram.busUtil                    0.23                       # Data bus utilization in percentage (Ratio)
system.mem_ctrls.dram.busUtilRead                0.15                       # Data bus utilization in percentage for reads (Ratio)
system.mem_ctrls.dram.busUtilWrite               0.08                       # Data bus utilization in percentage for writes (Ratio)
system.mem_ctrls.dram.pageHitRate               87.12                       # Row buffer hit rate, read and write combined (Ratio)
system.mem_ctrls.dram.power_state.pwrStateResidencyTicks::UNDEFINED  20728491500                       # Cumulative time (in ticks) in various power states (Tick)
system.mem_ctrls.dram.rank0.actEnergy         3098760                       # Energy for activate commands per rank (pJ) (Joule)
system.mem_ctrls.dram.rank0.preEnergy         1639440                       # Energy for precharge commands per rank (pJ) (Joule)
system.mem_ctrls.dram.rank0.readEnergy       13044780                       # Energy for read commands per rank (pJ) (Joule)
system.mem_ctrls.dram.rank0.writeEnergy       1800900                       # Energy for write commands per rank (pJ) (Joule)
system.mem_ctrls.dram.rank0.refreshEnergy 1636171680.000000                       # Energy for refresh commands per rank (pJ) (Joule)
system.mem_ctrls.dram.rank0.actBackEnergy    470188440                       # Energy for active background per rank (pJ) (Joule)
system.mem_ctrls.dram.rank0.preBackEnergy   7563792960                       # Energy for precharge background per rank (pJ) (Joule)
system.mem_ctrls.dram.rank0.actPowerDownEnergy            0                       # Energy for active power-down per rank (pJ) (Joule)
system.mem_ctrls.dram.rank0.prePowerDownEnergy            0                       # Energy for precharge power-down per rank (pJ) (Joule)
system.mem_ctrls.dram.rank0.selfRefreshEnergy            0                       # Energy for self refresh per rank (pJ) (Joule)
system.mem_ctrls.dram.rank0.totalEnergy    9689736960                       # Total energy per rank (pJ) (Joule)
system.mem_ctrls.dram.rank0.averagePower   467.459823                       # Core power per rank (mW) (Watt)
system.mem_ctrls.dram.rank0.totalIdleTime            0                       # Total Idle time Per DRAM Rank (Tick)
system.mem_ctrls.dram.rank0.pwrStateTime::IDLE  19659533500                       # Time in different power states (Tick)
system.mem_ctrls.dram.rank0.pwrStateTime::REF    692120000                       # Time in different power states (Tick)
system.mem_ctrls.dram.rank0.pwrStateTime::SREF            0                       # Time in different power states (Tick)
system.mem_ctrls.dram.rank0.pwrStateTime::PRE_PDN            0                       # Time in different power states (Tick)
system.mem_ctrls.dram.rank0.pwrStateTime::ACT    376838000                       # Time in different power states (Tick)
system.mem_ctrls.dram.rank0.pwrStateTime::ACT_PDN            0                       # Time in different power states (Tick)
system.mem_ctrls.dram.rank1.actEnergy         5590620                       # Energy for activate commands per rank (pJ) (Joule)
system.mem_ctrls.dram.rank1.preEnergy         2956305                       # Energy for precharge commands per rank (pJ) (Joule)
system.mem_ctrls.dram.rank1.readEnergy       30116520                       # Energy for read commands per rank (pJ) (Joule)
system.mem_ctrls.dram.rank1.writeEnergy      15978420                       # Energy for write commands per rank (pJ) (Joule)
system.mem_ctrls.dram.rank1.refreshEnergy 1636171680.000000                       # Energy for refresh commands per rank (pJ) (Joule)
system.mem_ctrls.dram.rank1.actBackEnergy    737472270                       # Energy for active background per rank (pJ) (Joule)
system.mem_ctrls.dram.rank1.preBackEnergy   7338711840                       # Energy for precharge background per rank (pJ) (Joule)
system.mem_ctrls.dram.rank1.actPowerDownEnergy            0                       # Energy for active power-down per rank (pJ) (Joule)
system.mem_ctrls.dram.rank1.prePowerDownEnergy            0                       # Energy for precharge power-down per rank (pJ) (Joule)
system.mem_ctrls.dram.rank1.selfRefreshEnergy            0                       # Energy for self refresh per rank (pJ) (Joule)
system.mem_ctrls.dram.rank1.totalEnergy    9766997655                       # Total energy per rank (pJ) (Joule)
system.mem_ctrls.dram.rank1.averagePower   471.187093                       # Core power per rank (mW) (Watt)
system.mem_ctrls.dram.rank1.totalIdleTime            0                       # Total Idle time Per DRAM Rank (Tick)
system.mem_ctrls.dram.rank1.pwrStateTime::IDLE  19072111000                       # Time in different power states (Tick)
system.mem_ctrls.dram.rank1.pwrStateTime::REF    692120000                       # Time in different power states (Tick)
system.mem_ctrls.dram.rank1.pwrStateTime::SREF            0                       # Time in different power states (Tick)
system.mem_ctrls.dram.rank1.pwrStateTime::PRE_PDN            0                       # Time in different power states (Tick)
system.mem_ctrls.dram.rank1.pwrStateTime::ACT    964260500                       # Time in different power states (Tick)
system.mem_ctrls.dram.rank1.pwrStateTime::ACT_PDN            0                       # Time in different power states (Tick)
system.mem_ctrls.power_state.pwrStateResidencyTicks::UNDEFINED  20728491500                       # Cumulative time (in ticks) in various power states (Tick)
system.membus.transDist::ReadResp                4314                       # Transaction distribution (Count)
system.membus.transDist::WritebackDirty          3432                       # Transaction distribution (Count)
system.membus.transDist::CleanEvict              2182                       # Transaction distribution (Count)
system.membus.transDist::ReadExReq               1818                       # Transaction distribution (Count)
system.membus.transDist::ReadExResp              1818                       # Transaction distribution (Count)
system.membus.transDist::ReadSharedReq           4315                       # Transaction distribution (Count)
system.membus.pktCount_system.l2cache.mem_side_port::system.mem_ctrls.port        17879                       # Packet count per connected requestor and responder (Count)
system.membus.pktCount_system.l2cache.mem_side_port::total        17879                       # Packet count per connected requestor and responder (Count)
system.membus.pktCount::total                   17879                       # Packet count per connected requestor and responder (Count)
system.membus.pktSize_system.l2cache.mem_side_port::system.mem_ctrls.port       612096                       # Cumulative packet size per connected requestor and responder (Byte)
system.membus.pktSize_system.l2cache.mem_side_port::total       612096                       # Cumulative packet size per connected requestor and responder (Byte)
system.membus.pktSize::total                   612096                       # Cumulative packet size per connected requestor and responder (Byte)
system.membus.snoops                                0                       # Total snoops (Count)
system.membus.snoopTraffic                          0                       # Total snoop traffic (Byte)
system.membus.snoopFanout::samples               6133                       # Request fanout histogram (Count)
system.membus.snoopFanout::mean                     0                       # Request fanout histogram (Count)
system.membus.snoopFanout::stdev                    0                       # Request fanout histogram (Count)
system.membus.snoopFanout::underflows               0      0.00%      0.00% # Request fanout histogram (Count)
system.membus.snoopFanout::0                     6133    100.00%    100.00% # Request fanout histogram (Count)
system.membus.snoopFanout::1                        0      0.00%    100.00% # Request fanout histogram (Count)
system.membus.snoopFanout::overflows                0      0.00%    100.00% # Request fanout histogram (Count)
system.membus.snoopFanout::min_value                0                       # Request fanout histogram (Count)
system.membus.snoopFanout::max_value                0                       # Request fanout histogram (Count)
system.membus.snoopFanout::total                 6133                       # Request fanout histogram (Count)
system.membus.power_state.pwrStateResidencyTicks::UNDEFINED  20728491500                       # Cumulative time (in ticks) in various power states (Tick)
system.membus.reqLayer2.occupancy            12737500                       # Layer occupancy (ticks) (Tick)
system.membus.reqLayer2.utilization               0.0                       # Layer utilization (Ratio)
system.membus.respLayer1.occupancy           16662000                       # Layer occupancy (ticks) (Tick)
system.membus.respLayer1.utilization              0.0                       # Layer utilization (Ratio)
system.membus.snoop_filter.totRequests          11747                       # Total number of requests made to the snoop filter. (Count)
system.membus.snoop_filter.hitSingleRequests         5614                       # Number of requests hitting in the snoop filter with a single holder of the requested data. (Count)
system.membus.snoop_filter.hitMultiRequests            0                       # Number of requests hitting in the snoop filter with multiple (>1) holders of the requested data. (Count)
system.membus.snoop_filter.totSnoops                0                       # Total number of snoops made to the snoop filter. (Count)
system.membus.snoop_filter.hitSingleSnoops            0                       # Number of snoops hitting in the snoop filter with a single holder of the requested data. (Count)
system.membus.snoop_filter.hitMultiSnoops            0                       # Number of snoops hitting in the snoop filter with multiple (>1) holders of the requested data. (Count)
system.workload.inst.arm                            0                       # number of arm instructions executed (Count)
system.workload.inst.quiesce                        0                       # number of quiesce instructions executed (Count)

---------- End Simulation Statistics   ----------
