
---------- Begin Simulation Statistics ----------
simSeconds                                   0.021421                       # Number of seconds simulated (Second)
simTicks                                  21420600500                       # Number of ticks simulated (Tick)
finalTick                                 21420600500                       # Number of ticks from beginning of simulation (restored from checkpoints and never reset) (Tick)
simFreq                                  1000000000000                       # The number of ticks per simulated second ((Tick/Second))
hostSeconds                                    294.16                       # Real time elapsed on the host (Second)
hostTickRate                                 72820263                       # The number of ticks simulated per host second (ticks/s) ((Tick/Second))
hostMemory                                     801324                       # Number of bytes of host memory used (Byte)
simInsts                                     21343836                       # Number of instructions simulated (Count)
simOps                                       39396425                       # Number of ops (including micro ops) simulated (Count)
hostInstRate                                    72559                       # Simulator instruction rate (inst/s) ((Count/Second))
hostOpRate                                     133930                       # Simulator op (including micro ops) rate (op/s) ((Count/Second))
system.clk_domain.clock                           500                       # Clock period in ticks (Tick)
system.clk_domain.voltage_domain.voltage            1                       # Voltage in Volts (Volt)
system.cpu.numCycles                         42841202                       # Number of cpu cycles simulated (Cycle)
system.cpu.numWorkItemsStarted                      0                       # Number of work items this cpu started (Count)
system.cpu.numWorkItemsCompleted                    0                       # Number of work items this cpu completed (Count)
system.cpu.instsAdded                        54962041                       # Number of instructions added to the IQ (excludes non-spec) (Count)
system.cpu.nonSpecInstsAdded                    19363                       # Number of non-speculative instructions added to the IQ (Count)
system.cpu.instsIssued                       49521478                       # Number of instructions issued (Count)
system.cpu.squashedInstsIssued                  28838                       # Number of squashed instructions issued (Count)
system.cpu.squashedInstsExamined             15584973                       # Number of squashed instructions iterated over during squash; mainly for profiling (Count)
system.cpu.squashedOperandsExamined          28442126                       # Number of squashed operands that are examined and possibly removed from graph (Count)
system.cpu.squashedNonSpecRemoved               19345                       # Number of squashed non-spec instructions that were removed (Count)
system.cpu.numIssuedDist::samples            40161570                       # Number of insts issued each cycle (Count)
system.cpu.numIssuedDist::mean               1.233056                       # Number of insts issued each cycle (Count)
system.cpu.numIssuedDist::stdev              1.973051                       # Number of insts issued each cycle (Count)
system.cpu.numIssuedDist::underflows                0      0.00%      0.00% # Number of insts issued each cycle (Count)
system.cpu.numIssuedDist::0                  24663348     61.41%     61.41% # Number of insts issued each cycle (Count)
system.cpu.numIssuedDist::1                   3769306      9.39%     70.80% # Number of insts issued each cycle (Count)
system.cpu.numIssuedDist::2                   3276684      8.16%     78.95% # Number of insts issued each cycle (Count)
system.cpu.numIssuedDist::3                   2373716      5.91%     84.86% # Number of insts issued each cycle (Count)
system.cpu.numIssuedDist::4                   2261755      5.63%     90.50% # Number of insts issued each cycle (Count)
system.cpu.numIssuedDist::5                   1484964      3.70%     94.19% # Number of insts issued each cycle (Count)
system.cpu.numIssuedDist::6                   1175338      2.93%     97.12% # Number of insts issued each cycle (Count)
system.cpu.numIssuedDist::7                    697884      1.74%     98.86% # Number of insts issued each cycle (Count)
system.cpu.numIssuedDist::8                    458575      1.14%    100.00% # Number of insts issued each cycle (Count)
system.cpu.numIssuedDist::overflows                 0      0.00%    100.00% # Number of insts issued each cycle (Count)
system.cpu.numIssuedDist::min_value                 0                       # Number of insts issued each cycle (Count)
system.cpu.numIssuedDist::max_value                 8                       # Number of insts issued each cycle (Count)
system.cpu.numIssuedDist::total              40161570                       # Number of insts issued each cycle (Count)
system.cpu.statFuBusy::No_OpClass                   0      0.00%      0.00% # attempts to use FU when none available (Count)
system.cpu.statFuBusy::IntAlu                       0      0.00%      0.00% # attempts to use FU when none available (Count)
system.cpu.statFuBusy::IntMult                      0      0.00%      0.00% # attempts to use FU when none available (Count)
system.cpu.statFuBusy::IntDiv                       0      0.00%      0.00% # attempts to use FU when none available (Count)
system.cpu.statFuBusy::FloatAdd                     0      0.00%      0.00% # attempts to use FU when none available (Count)
system.cpu.statFuBusy::FloatCmp                     0      0.00%      0.00% # attempts to use FU when none available (Count)
system.cpu.statFuBusy::FloatCvt                     0      0.00%      0.00% # attempts to use FU when none available (Count)
system.cpu.statFuBusy::FloatMult                    0      0.00%      0.00% # attempts to use FU when none available (Count)
system.cpu.statFuBusy::FloatMultAcc                 0      0.00%      0.00% # attempts to use FU when none available (Count)
system.cpu.statFuBusy::FloatDiv                     0      0.00%      0.00% # attempts to use FU when none available (Count)
system.cpu.statFuBusy::FloatMisc                    0      0.00%      0.00% # attempts to use FU when none available (Count)
system.cpu.statFuBusy::FloatSqrt                    0      0.00%      0.00% # attempts to use FU when none available (Count)
system.cpu.statFuBusy::SimdAdd                      0      0.00%      0.00% # attempts to use FU when none available (Count)
system.cpu.statFuBusy::SimdAddAcc                   0      0.00%      0.00% # attempts to use FU when none available (Count)
system.cpu.statFuBusy::SimdAlu                      0      0.00%      0.00% # attempts to use FU when none available (Count)
system.cpu.statFuBusy::SimdCmp                      0      0.00%      0.00% # attempts to use FU when none available (Count)
system.cpu.statFuBusy::SimdCvt                      0      0.00%      0.00% # attempts to use FU when none available (Count)
system.cpu.statFuBusy::SimdMisc                     0      0.00%      0.00% # attempts to use FU when none available (Count)
system.cpu.statFuBusy::SimdMult                     0      0.00%      0.00% # attempts to use FU when none available (Count)
system.cpu.statFuBusy::SimdMultAcc                  0      0.00%      0.00% # attempts to use FU when none available (Count)
system.cpu.statFuBusy::SimdShift                    0      0.00%      0.00% # attempts to use FU when none available (Count)
system.cpu.statFuBusy::SimdShiftAcc                 0      0.00%      0.00% # attempts to use FU when none available (Count)
system.cpu.statFuBusy::SimdDiv                      0      0.00%      0.00% # attempts to use FU when none available (Count)
system.cpu.statFuBusy::SimdSqrt                     0      0.00%      0.00% # attempts to use FU when none available (Count)
system.cpu.statFuBusy::SimdFloatAdd                 0      0.00%      0.00% # attempts to use FU when none available (Count)
system.cpu.statFuBusy::SimdFloatAlu                 0      0.00%      0.00% # attempts to use FU when none available (Count)
system.cpu.statFuBusy::SimdFloatCmp                 0      0.00%      0.00% # attempts to use FU when none available (Count)
system.cpu.statFuBusy::SimdFloatCvt                 0      0.00%      0.00% # attempts to use FU when none available (Count)
system.cpu.statFuBusy::SimdFloatDiv                 0      0.00%      0.00% # attempts to use FU when none available (Count)
system.cpu.statFuBusy::SimdFloatMisc                0      0.00%      0.00% # attempts to use FU when none available (Count)
system.cpu.statFuBusy::SimdFloatMult                0      0.00%      0.00% # attempts to use FU when none available (Count)
system.cpu.statFuBusy::SimdFloatMultAcc             0      0.00%      0.00% # attempts to use FU when none available (Count)
system.cpu.statFuBusy::SimdFloatSqrt                0      0.00%      0.00% # attempts to use FU when none available (Count)
system.cpu.statFuBusy::SimdReduceAdd                0      0.00%      0.00% # attempts to use FU when none available (Count)
system.cpu.statFuBusy::SimdReduceAlu                0      0.00%      0.00% # attempts to use FU when none available (Count)
system.cpu.statFuBusy::SimdReduceCmp                0      0.00%      0.00% # attempts to use FU when none available (Count)
system.cpu.statFuBusy::SimdFloatReduceAdd            0      0.00%      0.00% # attempts to use FU when none available (Count)
system.cpu.statFuBusy::SimdFloatReduceCmp            0      0.00%      0.00% # attempts to use FU when none available (Count)
system.cpu.statFuBusy::SimdAes                      0      0.00%      0.00% # attempts to use FU when none available (Count)
system.cpu.statFuBusy::SimdAesMix                   0      0.00%      0.00% # attempts to use FU when none available (Count)
system.cpu.statFuBusy::SimdSha1Hash                 0      0.00%      0.00% # attempts to use FU when none available (Count)
system.cpu.statFuBusy::SimdSha1Hash2                0      0.00%      0.00% # attempts to use FU when none available (Count)
system.cpu.statFuBusy::SimdSha256Hash               0      0.00%      0.00% # attempts to use FU when none available (Count)
system.cpu.statFuBusy::SimdSha256Hash2              0      0.00%      0.00% # attempts to use FU when none available (Count)
system.cpu.statFuBusy::SimdShaSigma2                0      0.00%      0.00% # attempts to use FU when none available (Count)
system.cpu.statFuBusy::SimdShaSigma3                0      0.00%      0.00% # attempts to use FU when none available (Count)
system.cpu.statFuBusy::SimdPredAlu                  0      0.00%      0.00% # attempts to use FU when none available (Count)
system.cpu.statFuBusy::MemRead                 131553     69.73%     69.73% # attempts to use FU when none available (Count)
system.cpu.statFuBusy::MemWrite                 57063     30.25%     99.98% # attempts to use FU when none available (Count)
system.cpu.statFuBusy::FloatMemRead                16      0.01%     99.99% # attempts to use FU when none available (Count)
system.cpu.statFuBusy::FloatMemWrite               18      0.01%    100.00% # attempts to use FU when none available (Count)
system.cpu.statFuBusy::IprAccess                    0      0.00%    100.00% # attempts to use FU when none available (Count)
system.cpu.statFuBusy::InstPrefetch                 0      0.00%    100.00% # attempts to use FU when none available (Count)
system.cpu.statIssuedInstType_0::No_OpClass        72556      0.15%      0.15% # Number of instructions issued per FU type, per thread (Count)
system.cpu.statIssuedInstType_0::IntAlu      35045084     70.77%     70.91% # Number of instructions issued per FU type, per thread (Count)
system.cpu.statIssuedInstType_0::IntMult       128938      0.26%     71.17% # Number of instructions issued per FU type, per thread (Count)
system.cpu.statIssuedInstType_0::IntDiv        127352      0.26%     71.43% # Number of instructions issued per FU type, per thread (Count)
system.cpu.statIssuedInstType_0::FloatAdd        35441      0.07%     71.50% # Number of instructions issued per FU type, per thread (Count)
system.cpu.statIssuedInstType_0::FloatCmp            0      0.00%     71.50% # Number of instructions issued per FU type, per thread (Count)
system.cpu.statIssuedInstType_0::FloatCvt           32      0.00%     71.50% # Number of instructions issued per FU type, per thread (Count)
system.cpu.statIssuedInstType_0::FloatMult            0      0.00%     71.50% # Number of instructions issued per FU type, per thread (Count)
system.cpu.statIssuedInstType_0::FloatMultAcc            0      0.00%     71.50% # Number of instructions issued per FU type, per thread (Count)
system.cpu.statIssuedInstType_0::FloatDiv            0      0.00%     71.50% # Number of instructions issued per FU type, per thread (Count)
system.cpu.statIssuedInstType_0::FloatMisc            0      0.00%     71.50% # Number of instructions issued per FU type, per thread (Count)
system.cpu.statIssuedInstType_0::FloatSqrt            0      0.00%     71.50% # Number of instructions issued per FU type, per thread (Count)
system.cpu.statIssuedInstType_0::SimdAdd            0      0.00%     71.50% # Number of instructions issued per FU type, per thread (Count)
system.cpu.statIssuedInstType_0::SimdAddAcc            0      0.00%     71.50% # Number of instructions issued per FU type, per thread (Count)
system.cpu.statIssuedInstType_0::SimdAlu        70850      0.14%     71.65% # Number of instructions issued per FU type, per thread (Count)
system.cpu.statIssuedInstType_0::SimdCmp            0      0.00%     71.65% # Number of instructions issued per FU type, per thread (Count)
system.cpu.statIssuedInstType_0::SimdCvt       141717      0.29%     71.93% # Number of instructions issued per FU type, per thread (Count)
system.cpu.statIssuedInstType_0::SimdMisc       389691      0.79%     72.72% # Number of instructions issued per FU type, per thread (Count)
system.cpu.statIssuedInstType_0::SimdMult            0      0.00%     72.72% # Number of instructions issued per FU type, per thread (Count)
system.cpu.statIssuedInstType_0::SimdMultAcc            0      0.00%     72.72% # Number of instructions issued per FU type, per thread (Count)
system.cpu.statIssuedInstType_0::SimdShift            0      0.00%     72.72% # Number of instructions issued per FU type, per thread (Count)
system.cpu.statIssuedInstType_0::SimdShiftAcc            0      0.00%     72.72% # Number of instructions issued per FU type, per thread (Count)
system.cpu.statIssuedInstType_0::SimdDiv            0      0.00%     72.72% # Number of instructions issued per FU type, per thread (Count)
system.cpu.statIssuedInstType_0::SimdSqrt            0      0.00%     72.72% # Number of instructions issued per FU type, per thread (Count)
system.cpu.statIssuedInstType_0::SimdFloatAdd            0      0.00%     72.72% # Number of instructions issued per FU type, per thread (Count)
system.cpu.statIssuedInstType_0::SimdFloatAlu            0      0.00%     72.72% # Number of instructions issued per FU type, per thread (Count)
system.cpu.statIssuedInstType_0::SimdFloatCmp            0      0.00%     72.72% # Number of instructions issued per FU type, per thread (Count)
system.cpu.statIssuedInstType_0::SimdFloatCvt            0      0.00%     72.72% # Number of instructions issued per FU type, per thread (Count)
system.cpu.statIssuedInstType_0::SimdFloatDiv            0      0.00%     72.72% # Number of instructions issued per FU type, per thread (Count)
system.cpu.statIssuedInstType_0::SimdFloatMisc            0      0.00%     72.72% # Number of instructions issued per FU type, per thread (Count)
system.cpu.statIssuedInstType_0::SimdFloatMult            0      0.00%     72.72% # Number of instructions issued per FU type, per thread (Count)
system.cpu.statIssuedInstType_0::SimdFloatMultAcc            0      0.00%     72.72% # Number of instructions issued per FU type, per thread (Count)
system.cpu.statIssuedInstType_0::SimdFloatSqrt            0      0.00%     72.72% # Number of instructions issued per FU type, per thread (Count)
system.cpu.statIssuedInstType_0::SimdReduceAdd            0      0.00%     72.72% # Number of instructions issued per FU type, per thread (Count)
system.cpu.statIssuedInstType_0::SimdReduceAlu            0      0.00%     72.72% # Number of instructions issued per FU type, per thread (Count)
system.cpu.statIssuedInstType_0::SimdReduceCmp            0      0.00%     72.72% # Number of instructions issued per FU type, per thread (Count)
system.cpu.statIssuedInstType_0::SimdFloatReduceAdd            0      0.00%     72.72% # Number of instructions issued per FU type, per thread (Count)
system.cpu.statIssuedInstType_0::SimdFloatReduceCmp            0      0.00%     72.72% # Number of instructions issued per FU type, per thread (Count)
system.cpu.statIssuedInstType_0::SimdAes            0      0.00%     72.72% # Number of instructions issued per FU type, per thread (Count)
system.cpu.statIssuedInstType_0::SimdAesMix            0      0.00%     72.72% # Number of instructions issued per FU type, per thread (Count)
system.cpu.statIssuedInstType_0::SimdSha1Hash            0      0.00%     72.72% # Number of instructions issued per FU type, per thread (Count)
system.cpu.statIssuedInstType_0::SimdSha1Hash2            0      0.00%     72.72% # Number of instructions issued per FU type, per thread (Count)
system.cpu.statIssuedInstType_0::SimdSha256Hash            0      0.00%     72.72% # Number of instructions issued per FU type, per thread (Count)
system.cpu.statIssuedInstType_0::SimdSha256Hash2            0      0.00%     72.72% # Number of instructions issued per FU type, per thread (Count)
system.cpu.statIssuedInstType_0::SimdShaSigma2            0      0.00%     72.72% # Number of instructions issued per FU type, per thread (Count)
system.cpu.statIssuedInstType_0::SimdShaSigma3            0      0.00%     72.72% # Number of instructions issued per FU type, per thread (Count)
system.cpu.statIssuedInstType_0::SimdPredAlu            0      0.00%     72.72% # Number of instructions issued per FU type, per thread (Count)
system.cpu.statIssuedInstType_0::MemRead      9663179     19.51%     92.23% # Number of instructions issued per FU type, per thread (Count)
system.cpu.statIssuedInstType_0::MemWrite      3775640      7.62%     99.86% # Number of instructions issued per FU type, per thread (Count)
system.cpu.statIssuedInstType_0::FloatMemRead        70926      0.14%    100.00% # Number of instructions issued per FU type, per thread (Count)
system.cpu.statIssuedInstType_0::FloatMemWrite           72      0.00%    100.00% # Number of instructions issued per FU type, per thread (Count)
system.cpu.statIssuedInstType_0::IprAccess            0      0.00%    100.00% # Number of instructions issued per FU type, per thread (Count)
system.cpu.statIssuedInstType_0::InstPrefetch            0      0.00%    100.00% # Number of instructions issued per FU type, per thread (Count)
system.cpu.statIssuedInstType_0::total       49521478                       # Number of instructions issued per FU type, per thread (Count)
system.cpu.issueRate                         1.155931                       # Inst issue rate ((Count/Cycle))
system.cpu.fuBusy                              188650                       # FU busy when requested (Count)
system.cpu.fuBusyRate                        0.003809                       # FU busy rate (busy events/executed inst) ((Count/Count))
system.cpu.intInstQueueReads                137791954                       # Number of integer instruction queue reads (Count)
system.cpu.intInstQueueWrites                69751958                       # Number of integer instruction queue writes (Count)
system.cpu.intInstQueueWakeupAccesses        47492791                       # Number of integer instruction queue wakeup accesses (Count)
system.cpu.fpInstQueueReads                   1630060                       # Number of floating instruction queue reads (Count)
system.cpu.fpInstQueueWrites                   815067                       # Number of floating instruction queue writes (Count)
system.cpu.fpInstQueueWakeupAccesses           815010                       # Number of floating instruction queue wakeup accesses (Count)
system.cpu.vecInstQueueReads                        0                       # Number of vector instruction queue reads (Count)
system.cpu.vecInstQueueWrites                       0                       # Number of vector instruction queue writes (Count)
system.cpu.vecInstQueueWakeupAccesses               0                       # Number of vector instruction queue wakeup accesses (Count)
system.cpu.intAluAccesses                    48822525                       # Number of integer alu accesses (Count)
system.cpu.fpAluAccesses                       815047                       # Number of floating point alu accesses (Count)
system.cpu.vecAluAccesses                           0                       # Number of vector alu accesses (Count)
system.cpu.numInsts                          48824754                       # Number of executed instructions (Count)
system.cpu.numLoadInsts                       9496236                       # Number of load instructions executed (Count)
system.cpu.numSquashedInsts                    696724                       # Number of squashed instructions skipped in execute (Count)
system.cpu.numSwp                                   0                       # Number of swp insts executed (Count)
system.cpu.numNop                                   0                       # Number of nop insts executed (Count)
system.cpu.numRefs                           13127112                       # Number of memory reference insts executed (Count)
system.cpu.numBranches                        4377274                       # Number of branches executed (Count)
system.cpu.numStoreInsts                      3630876                       # Number of stores executed (Count)
system.cpu.numRate                           1.139668                       # Inst execution rate ((Count/Cycle))
system.cpu.timesIdled                          673838                       # Number of times that the entire CPU went into an idle state and unscheduled itself (Count)
system.cpu.idleCycles                         2679632                       # Total number of cycles that the CPU has spent unscheduled due to idling (Cycle)
system.cpu.committedInsts                    21343836                       # Number of Instructions Simulated (Count)
system.cpu.committedOps                      39396425                       # Number of Ops (including micro ops) Simulated (Count)
system.cpu.cpi                               2.007193                       # CPI: Cycles Per Instruction ((Cycle/Count))
system.cpu.totalCpi                          2.007193                       # CPI: Total CPI of All Threads ((Cycle/Count))
system.cpu.ipc                               0.498208                       # IPC: Instructions Per Cycle ((Count/Cycle))
system.cpu.totalIpc                          0.498208                       # IPC: Total IPC of All Threads ((Count/Cycle))
system.cpu.intRegfileReads                   60012625                       # Number of integer regfile reads (Count)
system.cpu.intRegfileWrites                  37005963                       # Number of integer regfile writes (Count)
system.cpu.fpRegfileReads                     1452612                       # Number of floating regfile reads (Count)
system.cpu.fpRegfileWrites                     673192                       # Number of floating regfile writes (Count)
system.cpu.ccRegfileReads                    20900533                       # number of cc regfile reads (Count)
system.cpu.ccRegfileWrites                   14774842                       # number of cc regfile writes (Count)
system.cpu.miscRegfileReads                  22667028                       # number of misc regfile reads (Count)
system.cpu.miscRegfileWrites                       18                       # number of misc regfile writes (Count)
system.cpu.MemDepUnit__0.insertedLoads       10889712                       # Number of loads inserted to the mem dependence unit. (Count)
system.cpu.MemDepUnit__0.insertedStores       4289321                       # Number of stores inserted to the mem dependence unit. (Count)
system.cpu.MemDepUnit__0.conflictingLoads      2170318                       # Number of conflicting loads. (Count)
system.cpu.MemDepUnit__0.conflictingStores       650700                       # Number of conflicting stores. (Count)
system.cpu.MemDepUnit__1.insertedLoads              0                       # Number of loads inserted to the mem dependence unit. (Count)
system.cpu.MemDepUnit__1.insertedStores             0                       # Number of stores inserted to the mem dependence unit. (Count)
system.cpu.MemDepUnit__1.conflictingLoads            0                       # Number of conflicting loads. (Count)
system.cpu.MemDepUnit__1.conflictingStores            0                       # Number of conflicting stores. (Count)
system.cpu.MemDepUnit__2.insertedLoads              0                       # Number of loads inserted to the mem dependence unit. (Count)
system.cpu.MemDepUnit__2.insertedStores             0                       # Number of stores inserted to the mem dependence unit. (Count)
system.cpu.MemDepUnit__2.conflictingLoads            0                       # Number of conflicting loads. (Count)
system.cpu.MemDepUnit__2.conflictingStores            0                       # Number of conflicting stores. (Count)
system.cpu.MemDepUnit__3.insertedLoads              0                       # Number of loads inserted to the mem dependence unit. (Count)
system.cpu.MemDepUnit__3.insertedStores             0                       # Number of stores inserted to the mem dependence unit. (Count)
system.cpu.MemDepUnit__3.conflictingLoads            0                       # Number of conflicting loads. (Count)
system.cpu.MemDepUnit__3.conflictingStores            0                       # Number of conflicting stores. (Count)
system.cpu.branchPred.lookups                 5584045                       # Number of BP lookups (Count)
system.cpu.branchPred.condPredicted           4243367                       # Number of conditional branches predicted (Count)
system.cpu.branchPred.condIncorrect            474701                       # Number of conditional branches incorrect (Count)
system.cpu.branchPred.BTBLookups              3154743                       # Number of BTB lookups (Count)
system.cpu.branchPred.BTBHits                 3034132                       # Number of BTB hits (Count)
system.cpu.branchPred.BTBHitRatio            0.961768                       # BTB Hit Ratio (Ratio)
system.cpu.branchPred.RASUsed                  359626                       # Number of times the RAS was used to get a target. (Count)
system.cpu.branchPred.RASIncorrect                685                       # Number of incorrect RAS predictions. (Count)
system.cpu.branchPred.indirectLookups          161832                       # Number of indirect predictor lookups. (Count)
system.cpu.branchPred.indirectHits             160884                       # Number of indirect target hits. (Count)
system.cpu.branchPred.indirectMisses              948                       # Number of indirect misses. (Count)
system.cpu.branchPred.indirectMispredicted          152                       # Number of mispredicted indirect branches. (Count)
system.cpu.commit.commitSquashedInsts        14964633                       # The number of squashed insts skipped by commit (Count)
system.cpu.commit.commitNonSpecStalls              18                       # The number of times commit has been forced to stall to communicate backwards (Count)
system.cpu.commit.branchMispredicts            439202                       # The number of times a branch was mispredicted (Count)
system.cpu.commit.numCommittedDist::samples     38035792                       # Number of insts commited each cycle (Count)
system.cpu.commit.numCommittedDist::mean     1.035772                       # Number of insts commited each cycle (Count)
system.cpu.commit.numCommittedDist::stdev     1.996950                       # Number of insts commited each cycle (Count)
system.cpu.commit.numCommittedDist::underflows            0      0.00%      0.00% # Number of insts commited each cycle (Count)
system.cpu.commit.numCommittedDist::0        25191269     66.23%     66.23% # Number of insts commited each cycle (Count)
system.cpu.commit.numCommittedDist::1         4516848     11.88%     78.11% # Number of insts commited each cycle (Count)
system.cpu.commit.numCommittedDist::2         2227018      5.86%     83.96% # Number of insts commited each cycle (Count)
system.cpu.commit.numCommittedDist::3         2647678      6.96%     90.92% # Number of insts commited each cycle (Count)
system.cpu.commit.numCommittedDist::4          647423      1.70%     92.62% # Number of insts commited each cycle (Count)
system.cpu.commit.numCommittedDist::5          479162      1.26%     93.88% # Number of insts commited each cycle (Count)
system.cpu.commit.numCommittedDist::6          358156      0.94%     94.83% # Number of insts commited each cycle (Count)
system.cpu.commit.numCommittedDist::7          397835      1.05%     95.87% # Number of insts commited each cycle (Count)
system.cpu.commit.numCommittedDist::8         1570403      4.13%    100.00% # Number of insts commited each cycle (Count)
system.cpu.commit.numCommittedDist::overflows            0      0.00%    100.00% # Number of insts commited each cycle (Count)
system.cpu.commit.numCommittedDist::min_value            0                       # Number of insts commited each cycle (Count)
system.cpu.commit.numCommittedDist::max_value            8                       # Number of insts commited each cycle (Count)
system.cpu.commit.numCommittedDist::total     38035792                       # Number of insts commited each cycle (Count)
system.cpu.commit.instsCommitted             21343836                       # Number of instructions committed (Count)
system.cpu.commit.opsCommitted               39396425                       # Number of ops (including micro ops) committed (Count)
system.cpu.commit.memRefs                     9984452                       # Number of memory references committed (Count)
system.cpu.commit.loads                       6778153                       # Number of loads committed (Count)
system.cpu.commit.amos                              0                       # Number of atomic instructions committed (Count)
system.cpu.commit.membars                           0                       # Number of memory barriers committed (Count)
system.cpu.commit.branches                    3853625                       # Number of branches committed (Count)
system.cpu.commit.vectorInstructions                0                       # Number of committed Vector instructions. (Count)
system.cpu.commit.floating                     814975                       # Number of committed floating point instructions. (Count)
system.cpu.commit.integer                    38702115                       # Number of committed integer instructions. (Count)
system.cpu.commit.functionCalls                304177                       # Number of function calls committed. (Count)
system.cpu.commit.committedInstType_0::No_OpClass        53708      0.14%      0.14% # Class of committed instruction (Count)
system.cpu.commit.committedInstType_0::IntAlu     28464930     72.25%     72.39% # Class of committed instruction (Count)
system.cpu.commit.committedInstType_0::IntMult       128911      0.33%     72.72% # Class of committed instruction (Count)
system.cpu.commit.committedInstType_0::IntDiv       126710      0.32%     73.04% # Class of committed instruction (Count)
system.cpu.commit.committedInstType_0::FloatAdd        35441      0.09%     73.13% # Class of committed instruction (Count)
system.cpu.commit.committedInstType_0::FloatCmp            0      0.00%     73.13% # Class of committed instruction (Count)
system.cpu.commit.committedInstType_0::FloatCvt           32      0.00%     73.13% # Class of committed instruction (Count)
system.cpu.commit.committedInstType_0::FloatMult            0      0.00%     73.13% # Class of committed instruction (Count)
system.cpu.commit.committedInstType_0::FloatMultAcc            0      0.00%     73.13% # Class of committed instruction (Count)
system.cpu.commit.committedInstType_0::FloatDiv            0      0.00%     73.13% # Class of committed instruction (Count)
system.cpu.commit.committedInstType_0::FloatMisc            0      0.00%     73.13% # Class of committed instruction (Count)
system.cpu.commit.committedInstType_0::FloatSqrt            0      0.00%     73.13% # Class of committed instruction (Count)
system.cpu.commit.committedInstType_0::SimdAdd            0      0.00%     73.13% # Class of committed instruction (Count)
system.cpu.commit.committedInstType_0::SimdAddAcc            0      0.00%     73.13% # Class of committed instruction (Count)
system.cpu.commit.committedInstType_0::SimdAlu        70850      0.18%     73.31% # Class of committed instruction (Count)
system.cpu.commit.committedInstType_0::SimdCmp            0      0.00%     73.31% # Class of committed instruction (Count)
system.cpu.commit.committedInstType_0::SimdCvt       141708      0.36%     73.67% # Class of committed instruction (Count)
system.cpu.commit.committedInstType_0::SimdMisc       389683      0.99%     74.66% # Class of committed instruction (Count)
system.cpu.commit.committedInstType_0::SimdMult            0      0.00%     74.66% # Class of committed instruction (Count)
system.cpu.commit.committedInstType_0::SimdMultAcc            0      0.00%     74.66% # Class of committed instruction (Count)
system.cpu.commit.committedInstType_0::SimdShift            0      0.00%     74.66% # Class of committed instruction (Count)
system.cpu.commit.committedInstType_0::SimdShiftAcc            0      0.00%     74.66% # Class of committed instruction (Count)
system.cpu.commit.committedInstType_0::SimdDiv            0      0.00%     74.66% # Class of committed instruction (Count)
system.cpu.commit.committedInstType_0::SimdSqrt            0      0.00%     74.66% # Class of committed instruction (Count)
system.cpu.commit.committedInstType_0::SimdFloatAdd            0      0.00%     74.66% # Class of committed instruction (Count)
system.cpu.commit.committedInstType_0::SimdFloatAlu            0      0.00%     74.66% # Class of committed instruction (Count)
system.cpu.commit.committedInstType_0::SimdFloatCmp            0      0.00%     74.66% # Class of committed instruction (Count)
system.cpu.commit.committedInstType_0::SimdFloatCvt            0      0.00%     74.66% # Class of committed instruction (Count)
system.cpu.commit.committedInstType_0::SimdFloatDiv            0      0.00%     74.66% # Class of committed instruction (Count)
system.cpu.commit.committedInstType_0::SimdFloatMisc            0      0.00%     74.66% # Class of committed instruction (Count)
system.cpu.commit.committedInstType_0::SimdFloatMult            0      0.00%     74.66% # Class of committed instruction (Count)
system.cpu.commit.committedInstType_0::SimdFloatMultAcc            0      0.00%     74.66% # Class of committed instruction (Count)
system.cpu.commit.committedInstType_0::SimdFloatSqrt            0      0.00%     74.66% # Class of committed instruction (Count)
system.cpu.commit.committedInstType_0::SimdReduceAdd            0      0.00%     74.66% # Class of committed instruction (Count)
system.cpu.commit.committedInstType_0::SimdReduceAlu            0      0.00%     74.66% # Class of committed instruction (Count)
system.cpu.commit.committedInstType_0::SimdReduceCmp            0      0.00%     74.66% # Class of committed instruction (Count)
system.cpu.commit.committedInstType_0::SimdFloatReduceAdd            0      0.00%     74.66% # Class of committed instruction (Count)
system.cpu.commit.committedInstType_0::SimdFloatReduceCmp            0      0.00%     74.66% # Class of committed instruction (Count)
system.cpu.commit.committedInstType_0::SimdAes            0      0.00%     74.66% # Class of committed instruction (Count)
system.cpu.commit.committedInstType_0::SimdAesMix            0      0.00%     74.66% # Class of committed instruction (Count)
system.cpu.commit.committedInstType_0::SimdSha1Hash            0      0.00%     74.66% # Class of committed instruction (Count)
system.cpu.commit.committedInstType_0::SimdSha1Hash2            0      0.00%     74.66% # Class of committed instruction (Count)
system.cpu.commit.committedInstType_0::SimdSha256Hash            0      0.00%     74.66% # Class of committed instruction (Count)
system.cpu.commit.committedInstType_0::SimdSha256Hash2            0      0.00%     74.66% # Class of committed instruction (Count)
system.cpu.commit.committedInstType_0::SimdShaSigma2            0      0.00%     74.66% # Class of committed instruction (Count)
system.cpu.commit.committedInstType_0::SimdShaSigma3            0      0.00%     74.66% # Class of committed instruction (Count)
system.cpu.commit.committedInstType_0::SimdPredAlu            0      0.00%     74.66% # Class of committed instruction (Count)
system.cpu.commit.committedInstType_0::MemRead      6707235     17.02%     91.68% # Class of committed instruction (Count)
system.cpu.commit.committedInstType_0::MemWrite      3206235      8.14%     99.82% # Class of committed instruction (Count)
system.cpu.commit.committedInstType_0::FloatMemRead        70918      0.18%    100.00% # Class of committed instruction (Count)
system.cpu.commit.committedInstType_0::FloatMemWrite           64      0.00%    100.00% # Class of committed instruction (Count)
system.cpu.commit.committedInstType_0::IprAccess            0      0.00%    100.00% # Class of committed instruction (Count)
system.cpu.commit.committedInstType_0::InstPrefetch            0      0.00%    100.00% # Class of committed instruction (Count)
system.cpu.commit.committedInstType_0::total     39396425                       # Class of committed instruction (Count)
system.cpu.commit.commitEligibleSamples       1570403                       # number cycles where commit BW limit reached (Cycle)
system.cpu.dcache.demandHits::cpu.data       10305143                       # number of demand (read+write) hits (Count)
system.cpu.dcache.demandHits::total          10305143                       # number of demand (read+write) hits (Count)
system.cpu.dcache.overallHits::cpu.data      10305143                       # number of overall hits (Count)
system.cpu.dcache.overallHits::total         10305143                       # number of overall hits (Count)
system.cpu.dcache.demandMisses::cpu.data       144642                       # number of demand (read+write) misses (Count)
system.cpu.dcache.demandMisses::total          144642                       # number of demand (read+write) misses (Count)
system.cpu.dcache.overallMisses::cpu.data       144642                       # number of overall misses (Count)
system.cpu.dcache.overallMisses::total         144642                       # number of overall misses (Count)
system.cpu.dcache.demandMissLatency::cpu.data   2977314956                       # number of demand (read+write) miss ticks (Tick)
system.cpu.dcache.demandMissLatency::total   2977314956                       # number of demand (read+write) miss ticks (Tick)
system.cpu.dcache.overallMissLatency::cpu.data   2977314956                       # number of overall miss ticks (Tick)
system.cpu.dcache.overallMissLatency::total   2977314956                       # number of overall miss ticks (Tick)
system.cpu.dcache.demandAccesses::cpu.data     10449785                       # number of demand (read+write) accesses (Count)
system.cpu.dcache.demandAccesses::total      10449785                       # number of demand (read+write) accesses (Count)
system.cpu.dcache.overallAccesses::cpu.data     10449785                       # number of overall (read+write) accesses (Count)
system.cpu.dcache.overallAccesses::total     10449785                       # number of overall (read+write) accesses (Count)
system.cpu.dcache.demandMissRate::cpu.data     0.013842                       # miss rate for demand accesses (Ratio)
system.cpu.dcache.demandMissRate::total      0.013842                       # miss rate for demand accesses (Ratio)
system.cpu.dcache.overallMissRate::cpu.data     0.013842                       # miss rate for overall accesses (Ratio)
system.cpu.dcache.overallMissRate::total     0.013842                       # miss rate for overall accesses (Ratio)
system.cpu.dcache.demandAvgMissLatency::cpu.data 20584.027848                       # average overall miss latency in ticks ((Tick/Count))
system.cpu.dcache.demandAvgMissLatency::total 20584.027848                       # average overall miss latency in ticks ((Tick/Count))
system.cpu.dcache.overallAvgMissLatency::cpu.data 20584.027848                       # average overall miss latency ((Tick/Count))
system.cpu.dcache.overallAvgMissLatency::total 20584.027848                       # average overall miss latency ((Tick/Count))
system.cpu.dcache.blockedCycles::no_mshrs        22123                       # number of cycles access was blocked (Cycle)
system.cpu.dcache.blockedCycles::no_targets         1014                       # number of cycles access was blocked (Cycle)
system.cpu.dcache.blockedCauses::no_mshrs          719                       # number of times access was blocked (Count)
system.cpu.dcache.blockedCauses::no_targets           13                       # number of times access was blocked (Count)
system.cpu.dcache.avgBlocked::no_mshrs      30.769124                       # average number of cycles each access was blocked ((Cycle/Count))
system.cpu.dcache.avgBlocked::no_targets           78                       # average number of cycles each access was blocked ((Cycle/Count))
system.cpu.dcache.writebacks::writebacks        39053                       # number of writebacks (Count)
system.cpu.dcache.writebacks::total             39053                       # number of writebacks (Count)
system.cpu.dcache.demandMshrHits::cpu.data        54662                       # number of demand (read+write) MSHR hits (Count)
system.cpu.dcache.demandMshrHits::total         54662                       # number of demand (read+write) MSHR hits (Count)
system.cpu.dcache.overallMshrHits::cpu.data        54662                       # number of overall MSHR hits (Count)
system.cpu.dcache.overallMshrHits::total        54662                       # number of overall MSHR hits (Count)
system.cpu.dcache.demandMshrMisses::cpu.data        89980                       # number of demand (read+write) MSHR misses (Count)
system.cpu.dcache.demandMshrMisses::total        89980                       # number of demand (read+write) MSHR misses (Count)
system.cpu.dcache.overallMshrMisses::cpu.data        89980                       # number of overall MSHR misses (Count)
system.cpu.dcache.overallMshrMisses::total        89980                       # number of overall MSHR misses (Count)
system.cpu.dcache.demandMshrMissLatency::cpu.data   1409573957                       # number of demand (read+write) MSHR miss ticks (Tick)
system.cpu.dcache.demandMshrMissLatency::total   1409573957                       # number of demand (read+write) MSHR miss ticks (Tick)
system.cpu.dcache.overallMshrMissLatency::cpu.data   1409573957                       # number of overall MSHR miss ticks (Tick)
system.cpu.dcache.overallMshrMissLatency::total   1409573957                       # number of overall MSHR miss ticks (Tick)
system.cpu.dcache.demandMshrMissRate::cpu.data     0.008611                       # mshr miss ratio for demand accesses (Ratio)
system.cpu.dcache.demandMshrMissRate::total     0.008611                       # mshr miss ratio for demand accesses (Ratio)
system.cpu.dcache.overallMshrMissRate::cpu.data     0.008611                       # mshr miss ratio for overall accesses (Ratio)
system.cpu.dcache.overallMshrMissRate::total     0.008611                       # mshr miss ratio for overall accesses (Ratio)
system.cpu.dcache.demandAvgMshrMissLatency::cpu.data 15665.414059                       # average overall mshr miss latency ((Tick/Count))
system.cpu.dcache.demandAvgMshrMissLatency::total 15665.414059                       # average overall mshr miss latency ((Tick/Count))
system.cpu.dcache.overallAvgMshrMissLatency::cpu.data 15665.414059                       # average overall mshr miss latency ((Tick/Count))
system.cpu.dcache.overallAvgMshrMissLatency::total 15665.414059                       # average overall mshr miss latency ((Tick/Count))
system.cpu.dcache.replacements                  89916                       # number of replacements (Count)
system.cpu.dcache.ReadReq.hits::cpu.data      7118120                       # number of ReadReq hits (Count)
system.cpu.dcache.ReadReq.hits::total         7118120                       # number of ReadReq hits (Count)
system.cpu.dcache.ReadReq.misses::cpu.data       125364                       # number of ReadReq misses (Count)
system.cpu.dcache.ReadReq.misses::total        125364                       # number of ReadReq misses (Count)
system.cpu.dcache.ReadReq.missLatency::cpu.data   2601025500                       # number of ReadReq miss ticks (Tick)
system.cpu.dcache.ReadReq.missLatency::total   2601025500                       # number of ReadReq miss ticks (Tick)
system.cpu.dcache.ReadReq.accesses::cpu.data      7243484                       # number of ReadReq accesses(hits+misses) (Count)
system.cpu.dcache.ReadReq.accesses::total      7243484                       # number of ReadReq accesses(hits+misses) (Count)
system.cpu.dcache.ReadReq.missRate::cpu.data     0.017307                       # miss rate for ReadReq accesses (Ratio)
system.cpu.dcache.ReadReq.missRate::total     0.017307                       # miss rate for ReadReq accesses (Ratio)
system.cpu.dcache.ReadReq.avgMissLatency::cpu.data 20747.786446                       # average ReadReq miss latency ((Tick/Count))
system.cpu.dcache.ReadReq.avgMissLatency::total 20747.786446                       # average ReadReq miss latency ((Tick/Count))
system.cpu.dcache.ReadReq.mshrHits::cpu.data        54626                       # number of ReadReq MSHR hits (Count)
system.cpu.dcache.ReadReq.mshrHits::total        54626                       # number of ReadReq MSHR hits (Count)
system.cpu.dcache.ReadReq.mshrMisses::cpu.data        70738                       # number of ReadReq MSHR misses (Count)
system.cpu.dcache.ReadReq.mshrMisses::total        70738                       # number of ReadReq MSHR misses (Count)
system.cpu.dcache.ReadReq.mshrMissLatency::cpu.data   1053462000                       # number of ReadReq MSHR miss ticks (Tick)
system.cpu.dcache.ReadReq.mshrMissLatency::total   1053462000                       # number of ReadReq MSHR miss ticks (Tick)
system.cpu.dcache.ReadReq.mshrMissRate::cpu.data     0.009766                       # mshr miss rate for ReadReq accesses (Ratio)
system.cpu.dcache.ReadReq.mshrMissRate::total     0.009766                       # mshr miss rate for ReadReq accesses (Ratio)
system.cpu.dcache.ReadReq.avgMshrMissLatency::cpu.data 14892.448189                       # average ReadReq mshr miss latency ((Tick/Count))
system.cpu.dcache.ReadReq.avgMshrMissLatency::total 14892.448189                       # average ReadReq mshr miss latency ((Tick/Count))
system.cpu.dcache.WriteReq.hits::cpu.data      3187023                       # number of WriteReq hits (Count)
system.cpu.dcache.WriteReq.hits::total        3187023                       # number of WriteReq hits (Count)
system.cpu.dcache.WriteReq.misses::cpu.data        19278                       # number of WriteReq misses (Count)
system.cpu.dcache.WriteReq.misses::total        19278                       # number of WriteReq misses (Count)
system.cpu.dcache.WriteReq.missLatency::cpu.data    376289456                       # number of WriteReq miss ticks (Tick)
system.cpu.dcache.WriteReq.missLatency::total    376289456                       # number of WriteReq miss ticks (Tick)
system.cpu.dcache.WriteReq.accesses::cpu.data      3206301                       # number of WriteReq accesses(hits+misses) (Count)
system.cpu.dcache.WriteReq.accesses::total      3206301                       # number of WriteReq accesses(hits+misses) (Count)
system.cpu.dcache.WriteReq.missRate::cpu.data     0.006013                       # miss rate for WriteReq accesses (Ratio)
system.cpu.dcache.WriteReq.missRate::total     0.006013                       # miss rate for WriteReq accesses (Ratio)
system.cpu.dcache.WriteReq.avgMissLatency::cpu.data 19519.112771                       # average WriteReq miss latency ((Tick/Count))
system.cpu.dcache.WriteReq.avgMissLatency::total 19519.112771                       # average WriteReq miss latency ((Tick/Count))
system.cpu.dcache.WriteReq.mshrHits::cpu.data           36                       # number of WriteReq MSHR hits (Count)
system.cpu.dcache.WriteReq.mshrHits::total           36                       # number of WriteReq MSHR hits (Count)
system.cpu.dcache.WriteReq.mshrMisses::cpu.data        19242                       # number of WriteReq MSHR misses (Count)
system.cpu.dcache.WriteReq.mshrMisses::total        19242                       # number of WriteReq MSHR misses (Count)
system.cpu.dcache.WriteReq.mshrMissLatency::cpu.data    356111957                       # number of WriteReq MSHR miss ticks (Tick)
system.cpu.dcache.WriteReq.mshrMissLatency::total    356111957                       # number of WriteReq MSHR miss ticks (Tick)
system.cpu.dcache.WriteReq.mshrMissRate::cpu.data     0.006001                       # mshr miss rate for WriteReq accesses (Ratio)
system.cpu.dcache.WriteReq.mshrMissRate::total     0.006001                       # mshr miss rate for WriteReq accesses (Ratio)
system.cpu.dcache.WriteReq.avgMshrMissLatency::cpu.data 18507.013668                       # average WriteReq mshr miss latency ((Tick/Count))
system.cpu.dcache.WriteReq.avgMshrMissLatency::total 18507.013668                       # average WriteReq mshr miss latency ((Tick/Count))
system.cpu.dcache.power_state.pwrStateResidencyTicks::UNDEFINED  21420600500                       # Cumulative time (in ticks) in various power states (Tick)
system.cpu.dcache.tags.tagsInUse            63.992323                       # Average ticks per tags in use ((Tick/Count))
system.cpu.dcache.tags.totalRefs             10395123                       # Total number of references to valid blocks. (Count)
system.cpu.dcache.tags.sampledRefs              89980                       # Sample count of references to valid blocks. (Count)
system.cpu.dcache.tags.avgRefs             115.527039                       # Average number of references to valid blocks. ((Count/Count))
system.cpu.dcache.tags.warmupTick            10906500                       # The tick when the warmup percentage was hit. (Tick)
system.cpu.dcache.tags.occupancies::cpu.data    63.992323                       # Average occupied blocks per tick, per requestor ((Count/Tick))
system.cpu.dcache.tags.avgOccs::cpu.data     0.999880                       # Average percentage of cache occupancy ((Ratio/Tick))
system.cpu.dcache.tags.avgOccs::total        0.999880                       # Average percentage of cache occupancy ((Ratio/Tick))
system.cpu.dcache.tags.occupanciesTaskId::1024           64                       # Occupied blocks per task id (Count)
system.cpu.dcache.tags.ageTaskId_1024::0           46                       # Occupied blocks per task id, per block age (Count)
system.cpu.dcache.tags.ageTaskId_1024::1            2                       # Occupied blocks per task id, per block age (Count)
system.cpu.dcache.tags.ageTaskId_1024::2           12                       # Occupied blocks per task id, per block age (Count)
system.cpu.dcache.tags.ageTaskId_1024::3            4                       # Occupied blocks per task id, per block age (Count)
system.cpu.dcache.tags.ratioOccsTaskId::1024            1                       # Ratio of occupied blocks and all blocks, per task id (Ratio)
system.cpu.dcache.tags.tagAccesses           20989550                       # Number of tag accesses (Count)
system.cpu.dcache.tags.dataAccesses          20989550                       # Number of data accesses (Count)
system.cpu.dcache.tags.power_state.pwrStateResidencyTicks::UNDEFINED  21420600500                       # Cumulative time (in ticks) in various power states (Tick)
system.cpu.decode.idleCycles                 27296195                       # Number of cycles decode is idle (Cycle)
system.cpu.decode.blockedCycles               3339641                       # Number of cycles decode is blocked (Cycle)
system.cpu.decode.runCycles                   8381414                       # Number of cycles decode is running (Cycle)
system.cpu.decode.unblockCycles                686719                       # Number of cycles decode is unblocking (Cycle)
system.cpu.decode.squashCycles                 457601                       # Number of cycles decode is squashing (Cycle)
system.cpu.decode.branchResolved              2920867                       # Number of times decode resolved a branch (Count)
system.cpu.decode.branchMispred                 53603                       # Number of times decode detected a branch misprediction (Count)
system.cpu.decode.decodedInsts               57754824                       # Number of instructions handled by decode (Count)
system.cpu.decode.squashedInsts                161481                       # Number of squashed instructions handled by decode (Count)
system.cpu.fetch.icacheStallCycles           27494124                       # Number of cycles fetch is stalled on an Icache miss (Cycle)
system.cpu.fetch.insts                       34587301                       # Number of instructions fetch has processed (Count)
system.cpu.fetch.branches                     5584045                       # Number of branches that fetch encountered (Count)
system.cpu.fetch.predictedBranches            3554642                       # Number of branches that fetch has predicted taken (Count)
system.cpu.fetch.cycles                      11993087                       # Number of cycles fetch has run and was not squashing or blocked (Cycle)
system.cpu.fetch.squashCycles                 1022398                       # Number of cycles fetch has spent squashing (Cycle)
system.cpu.fetch.miscStallCycles                18119                       # Number of cycles fetch has spent waiting on interrupts, or bad addresses, or out of MSHRs (Cycle)
system.cpu.fetch.pendingTrapStallCycles        144994                       # Number of stall cycles due to pending traps (Cycle)
system.cpu.fetch.icacheWaitRetryStallCycles           47                       # Number of stall cycles due to full MSHR (Cycle)
system.cpu.fetch.cacheLines                   4590309                       # Number of cache lines fetched (Count)
system.cpu.fetch.icacheSquashes                261340                       # Number of outstanding Icache misses that were squashed (Count)
system.cpu.fetch.nisnDist::samples           40161570                       # Number of instructions fetched each cycle (Total) (Count)
system.cpu.fetch.nisnDist::mean              1.508794                       # Number of instructions fetched each cycle (Total) (Count)
system.cpu.fetch.nisnDist::stdev             2.901218                       # Number of instructions fetched each cycle (Total) (Count)
system.cpu.fetch.nisnDist::underflows               0      0.00%      0.00% # Number of instructions fetched each cycle (Total) (Count)
system.cpu.fetch.nisnDist::0                 30345763     75.56%     75.56% # Number of instructions fetched each cycle (Total) (Count)
system.cpu.fetch.nisnDist::1                   731441      1.82%     77.38% # Number of instructions fetched each cycle (Total) (Count)
system.cpu.fetch.nisnDist::2                   402057      1.00%     78.38% # Number of instructions fetched each cycle (Total) (Count)
system.cpu.fetch.nisnDist::3                   731580      1.82%     80.20% # Number of instructions fetched each cycle (Total) (Count)
system.cpu.fetch.nisnDist::4                   653502      1.63%     81.83% # Number of instructions fetched each cycle (Total) (Count)
system.cpu.fetch.nisnDist::5                   545215      1.36%     83.19% # Number of instructions fetched each cycle (Total) (Count)
system.cpu.fetch.nisnDist::6                   846864      2.11%     85.30% # Number of instructions fetched each cycle (Total) (Count)
system.cpu.fetch.nisnDist::7                   797208      1.99%     87.28% # Number of instructions fetched each cycle (Total) (Count)
system.cpu.fetch.nisnDist::8                  5107940     12.72%    100.00% # Number of instructions fetched each cycle (Total) (Count)
system.cpu.fetch.nisnDist::overflows                0      0.00%    100.00% # Number of instructions fetched each cycle (Total) (Count)
system.cpu.fetch.nisnDist::min_value                0                       # Number of instructions fetched each cycle (Total) (Count)
system.cpu.fetch.nisnDist::max_value                8                       # Number of instructions fetched each cycle (Total) (Count)
system.cpu.fetch.nisnDist::total             40161570                       # Number of instructions fetched each cycle (Total) (Count)
system.cpu.fetch.branchRate                  0.130343                       # Number of branch fetches per cycle (Ratio)
system.cpu.fetch.rate                        0.807337                       # Number of inst fetches per cycle ((Count/Cycle))
system.cpu.icache.demandHits::cpu.inst        3366601                       # number of demand (read+write) hits (Count)
system.cpu.icache.demandHits::total           3366601                       # number of demand (read+write) hits (Count)
system.cpu.icache.overallHits::cpu.inst       3366601                       # number of overall hits (Count)
system.cpu.icache.overallHits::total          3366601                       # number of overall hits (Count)
system.cpu.icache.demandMisses::cpu.inst      1223708                       # number of demand (read+write) misses (Count)
system.cpu.icache.demandMisses::total         1223708                       # number of demand (read+write) misses (Count)
system.cpu.icache.overallMisses::cpu.inst      1223708                       # number of overall misses (Count)
system.cpu.icache.overallMisses::total        1223708                       # number of overall misses (Count)
system.cpu.icache.demandMissLatency::cpu.inst  15540085999                       # number of demand (read+write) miss ticks (Tick)
system.cpu.icache.demandMissLatency::total  15540085999                       # number of demand (read+write) miss ticks (Tick)
system.cpu.icache.overallMissLatency::cpu.inst  15540085999                       # number of overall miss ticks (Tick)
system.cpu.icache.overallMissLatency::total  15540085999                       # number of overall miss ticks (Tick)
system.cpu.icache.demandAccesses::cpu.inst      4590309                       # number of demand (read+write) accesses (Count)
system.cpu.icache.demandAccesses::total       4590309                       # number of demand (read+write) accesses (Count)
system.cpu.icache.overallAccesses::cpu.inst      4590309                       # number of overall (read+write) accesses (Count)
system.cpu.icache.overallAccesses::total      4590309                       # number of overall (read+write) accesses (Count)
system.cpu.icache.demandMissRate::cpu.inst     0.266585                       # miss rate for demand accesses (Ratio)
system.cpu.icache.demandMissRate::total      0.266585                       # miss rate for demand accesses (Ratio)
system.cpu.icache.overallMissRate::cpu.inst     0.266585                       # miss rate for overall accesses (Ratio)
system.cpu.icache.overallMissRate::total     0.266585                       # miss rate for overall accesses (Ratio)
system.cpu.icache.demandAvgMissLatency::cpu.inst 12699.178235                       # average overall miss latency in ticks ((Tick/Count))
system.cpu.icache.demandAvgMissLatency::total 12699.178235                       # average overall miss latency in ticks ((Tick/Count))
system.cpu.icache.overallAvgMissLatency::cpu.inst 12699.178235                       # average overall miss latency ((Tick/Count))
system.cpu.icache.overallAvgMissLatency::total 12699.178235                       # average overall miss latency ((Tick/Count))
system.cpu.icache.blockedCycles::no_mshrs          398                       # number of cycles access was blocked (Cycle)
system.cpu.icache.blockedCycles::no_targets            0                       # number of cycles access was blocked (Cycle)
system.cpu.icache.blockedCauses::no_mshrs            6                       # number of times access was blocked (Count)
system.cpu.icache.blockedCauses::no_targets            0                       # number of times access was blocked (Count)
system.cpu.icache.avgBlocked::no_mshrs      66.333333                       # average number of cycles each access was blocked ((Cycle/Count))
system.cpu.icache.avgBlocked::no_targets          nan                       # average number of cycles each access was blocked ((Cycle/Count))
system.cpu.icache.demandMshrHits::cpu.inst        62573                       # number of demand (read+write) MSHR hits (Count)
system.cpu.icache.demandMshrHits::total         62573                       # number of demand (read+write) MSHR hits (Count)
system.cpu.icache.overallMshrHits::cpu.inst        62573                       # number of overall MSHR hits (Count)
system.cpu.icache.overallMshrHits::total        62573                       # number of overall MSHR hits (Count)
system.cpu.icache.demandMshrMisses::cpu.inst      1161135                       # number of demand (read+write) MSHR misses (Count)
system.cpu.icache.demandMshrMisses::total      1161135                       # number of demand (read+write) MSHR misses (Count)
system.cpu.icache.overallMshrMisses::cpu.inst      1161135                       # number of overall MSHR misses (Count)
system.cpu.icache.overallMshrMisses::total      1161135                       # number of overall MSHR misses (Count)
system.cpu.icache.demandMshrMissLatency::cpu.inst  14006414499                       # number of demand (read+write) MSHR miss ticks (Tick)
system.cpu.icache.demandMshrMissLatency::total  14006414499                       # number of demand (read+write) MSHR miss ticks (Tick)
system.cpu.icache.overallMshrMissLatency::cpu.inst  14006414499                       # number of overall MSHR miss ticks (Tick)
system.cpu.icache.overallMshrMissLatency::total  14006414499                       # number of overall MSHR miss ticks (Tick)
system.cpu.icache.demandMshrMissRate::cpu.inst     0.252954                       # mshr miss ratio for demand accesses (Ratio)
system.cpu.icache.demandMshrMissRate::total     0.252954                       # mshr miss ratio for demand accesses (Ratio)
system.cpu.icache.overallMshrMissRate::cpu.inst     0.252954                       # mshr miss ratio for overall accesses (Ratio)
system.cpu.icache.overallMshrMissRate::total     0.252954                       # mshr miss ratio for overall accesses (Ratio)
system.cpu.icache.demandAvgMshrMissLatency::cpu.inst 12062.692537                       # average overall mshr miss latency ((Tick/Count))
system.cpu.icache.demandAvgMshrMissLatency::total 12062.692537                       # average overall mshr miss latency ((Tick/Count))
system.cpu.icache.overallAvgMshrMissLatency::cpu.inst 12062.692537                       # average overall mshr miss latency ((Tick/Count))
system.cpu.icache.overallAvgMshrMissLatency::total 12062.692537                       # average overall mshr miss latency ((Tick/Count))
system.cpu.icache.replacements                1161070                       # number of replacements (Count)
system.cpu.icache.ReadReq.hits::cpu.inst      3366601                       # number of ReadReq hits (Count)
system.cpu.icache.ReadReq.hits::total         3366601                       # number of ReadReq hits (Count)
system.cpu.icache.ReadReq.misses::cpu.inst      1223708                       # number of ReadReq misses (Count)
system.cpu.icache.ReadReq.misses::total       1223708                       # number of ReadReq misses (Count)
system.cpu.icache.ReadReq.missLatency::cpu.inst  15540085999                       # number of ReadReq miss ticks (Tick)
system.cpu.icache.ReadReq.missLatency::total  15540085999                       # number of ReadReq miss ticks (Tick)
system.cpu.icache.ReadReq.accesses::cpu.inst      4590309                       # number of ReadReq accesses(hits+misses) (Count)
system.cpu.icache.ReadReq.accesses::total      4590309                       # number of ReadReq accesses(hits+misses) (Count)
system.cpu.icache.ReadReq.missRate::cpu.inst     0.266585                       # miss rate for ReadReq accesses (Ratio)
system.cpu.icache.ReadReq.missRate::total     0.266585                       # miss rate for ReadReq accesses (Ratio)
system.cpu.icache.ReadReq.avgMissLatency::cpu.inst 12699.178235                       # average ReadReq miss latency ((Tick/Count))
system.cpu.icache.ReadReq.avgMissLatency::total 12699.178235                       # average ReadReq miss latency ((Tick/Count))
system.cpu.icache.ReadReq.mshrHits::cpu.inst        62573                       # number of ReadReq MSHR hits (Count)
system.cpu.icache.ReadReq.mshrHits::total        62573                       # number of ReadReq MSHR hits (Count)
system.cpu.icache.ReadReq.mshrMisses::cpu.inst      1161135                       # number of ReadReq MSHR misses (Count)
system.cpu.icache.ReadReq.mshrMisses::total      1161135                       # number of ReadReq MSHR misses (Count)
system.cpu.icache.ReadReq.mshrMissLatency::cpu.inst  14006414499                       # number of ReadReq MSHR miss ticks (Tick)
system.cpu.icache.ReadReq.mshrMissLatency::total  14006414499                       # number of ReadReq MSHR miss ticks (Tick)
system.cpu.icache.ReadReq.mshrMissRate::cpu.inst     0.252954                       # mshr miss rate for ReadReq accesses (Ratio)
system.cpu.icache.ReadReq.mshrMissRate::total     0.252954                       # mshr miss rate for ReadReq accesses (Ratio)
system.cpu.icache.ReadReq.avgMshrMissLatency::cpu.inst 12062.692537                       # average ReadReq mshr miss latency ((Tick/Count))
system.cpu.icache.ReadReq.avgMshrMissLatency::total 12062.692537                       # average ReadReq mshr miss latency ((Tick/Count))
system.cpu.icache.power_state.pwrStateResidencyTicks::UNDEFINED  21420600500                       # Cumulative time (in ticks) in various power states (Tick)
system.cpu.icache.tags.tagsInUse            63.990580                       # Average ticks per tags in use ((Tick/Count))
system.cpu.icache.tags.totalRefs              4527735                       # Total number of references to valid blocks. (Count)
system.cpu.icache.tags.sampledRefs            1161134                       # Sample count of references to valid blocks. (Count)
system.cpu.icache.tags.avgRefs               3.899408                       # Average number of references to valid blocks. ((Count/Count))
system.cpu.icache.tags.warmupTick             6616000                       # The tick when the warmup percentage was hit. (Tick)
system.cpu.icache.tags.occupancies::cpu.inst    63.990580                       # Average occupied blocks per tick, per requestor ((Count/Tick))
system.cpu.icache.tags.avgOccs::cpu.inst     0.999853                       # Average percentage of cache occupancy ((Ratio/Tick))
system.cpu.icache.tags.avgOccs::total        0.999853                       # Average percentage of cache occupancy ((Ratio/Tick))
system.cpu.icache.tags.occupanciesTaskId::1024           64                       # Occupied blocks per task id (Count)
system.cpu.icache.tags.ageTaskId_1024::0           57                       # Occupied blocks per task id, per block age (Count)
system.cpu.icache.tags.ageTaskId_1024::1            2                       # Occupied blocks per task id, per block age (Count)
system.cpu.icache.tags.ageTaskId_1024::4            5                       # Occupied blocks per task id, per block age (Count)
system.cpu.icache.tags.ratioOccsTaskId::1024            1                       # Ratio of occupied blocks and all blocks, per task id (Ratio)
system.cpu.icache.tags.tagAccesses           10341752                       # Number of tag accesses (Count)
system.cpu.icache.tags.dataAccesses          10341752                       # Number of data accesses (Count)
system.cpu.icache.tags.power_state.pwrStateResidencyTicks::UNDEFINED  21420600500                       # Cumulative time (in ticks) in various power states (Tick)
system.cpu.iew.idleCycles                           0                       # Number of cycles IEW is idle (Cycle)
system.cpu.iew.squashCycles                    457601                       # Number of cycles IEW is squashing (Cycle)
system.cpu.iew.blockCycles                    2023554                       # Number of cycles IEW is blocking (Cycle)
system.cpu.iew.unblockCycles                    37375                       # Number of cycles IEW is unblocking (Cycle)
system.cpu.iew.dispatchedInsts               54981404                       # Number of instructions dispatched to IQ (Count)
system.cpu.iew.dispSquashedInsts                  256                       # Number of squashed instructions skipped by dispatch (Count)
system.cpu.iew.dispLoadInsts                 10889712                       # Number of dispatched load instructions (Count)
system.cpu.iew.dispStoreInsts                 4289321                       # Number of dispatched store instructions (Count)
system.cpu.iew.dispNonSpecInsts                  6467                       # Number of dispatched non-speculative instructions (Count)
system.cpu.iew.iqFullEvents                     18792                       # Number of times the IQ has become full, causing a stall (Count)
system.cpu.iew.lsqFullEvents                     1070                       # Number of times the LSQ has become full, causing a stall (Count)
system.cpu.iew.memOrderViolationEvents            694                       # Number of memory order violations (Count)
system.cpu.iew.predictedTakenIncorrect         182685                       # Number of branches that were predicted taken incorrectly (Count)
system.cpu.iew.predictedNotTakenIncorrect       273974                       # Number of branches that were predicted not taken incorrectly (Count)
system.cpu.iew.branchMispredicts               456659                       # Number of branch mispredicts detected at execute (Count)
system.cpu.iew.instsToCommit                 48636881                       # Cumulative count of insts sent to commit (Count)
system.cpu.iew.writebackCount                48307801                       # Cumulative count of insts written-back (Count)
system.cpu.iew.producerInst                  35842920                       # Number of instructions producing a value (Count)
system.cpu.iew.consumerInst                  51302858                       # Number of instructions consuming a value (Count)
system.cpu.iew.wbRate                        1.127601                       # Insts written-back per cycle ((Count/Cycle))
system.cpu.iew.wbFanout                      0.698653                       # Average fanout of values written-back ((Count/Count))
system.cpu.interrupts.clk_domain.clock           8000                       # Clock period in ticks (Tick)
system.cpu.lsq0.forwLoads                     2212828                       # Number of loads that had data forwarded from stores (Count)
system.cpu.lsq0.squashedLoads                 4111559                       # Number of loads squashed (Count)
system.cpu.lsq0.ignoredResponses                 4064                       # Number of memory responses ignored because the instruction is squashed (Count)
system.cpu.lsq0.memOrderViolation                 694                       # Number of memory ordering violations (Count)
system.cpu.lsq0.squashedStores                1083022                       # Number of stores squashed (Count)
system.cpu.lsq0.rescheduledLoads                  229                       # Number of loads that were rescheduled (Count)
system.cpu.lsq0.blockedByCache                    566                       # Number of times an access to memory failed due to the cache being blocked (Count)
system.cpu.lsq0.loadToUse::samples            6778153                       # Distribution of cycle latency between the first time a load is issued and its completion (Unspecified)
system.cpu.lsq0.loadToUse::mean              3.531550                       # Distribution of cycle latency between the first time a load is issued and its completion (Unspecified)
system.cpu.lsq0.loadToUse::stdev             6.936068                       # Distribution of cycle latency between the first time a load is issued and its completion (Unspecified)
system.cpu.lsq0.loadToUse::0-9                6682404     98.59%     98.59% # Distribution of cycle latency between the first time a load is issued and its completion (Unspecified)
system.cpu.lsq0.loadToUse::10-19                 5414      0.08%     98.67% # Distribution of cycle latency between the first time a load is issued and its completion (Unspecified)
system.cpu.lsq0.loadToUse::20-29                76943      1.14%     99.80% # Distribution of cycle latency between the first time a load is issued and its completion (Unspecified)
system.cpu.lsq0.loadToUse::30-39                  852      0.01%     99.81% # Distribution of cycle latency between the first time a load is issued and its completion (Unspecified)
system.cpu.lsq0.loadToUse::40-49                  295      0.00%     99.82% # Distribution of cycle latency between the first time a load is issued and its completion (Unspecified)
system.cpu.lsq0.loadToUse::50-59                  176      0.00%     99.82% # Distribution of cycle latency between the first time a load is issued and its completion (Unspecified)
system.cpu.lsq0.loadToUse::60-69                  230      0.00%     99.83% # Distribution of cycle latency between the first time a load is issued and its completion (Unspecified)
system.cpu.lsq0.loadToUse::70-79                  339      0.01%     99.83% # Distribution of cycle latency between the first time a load is issued and its completion (Unspecified)
system.cpu.lsq0.loadToUse::80-89                  319      0.00%     99.84% # Distribution of cycle latency between the first time a load is issued and its completion (Unspecified)
system.cpu.lsq0.loadToUse::90-99                  984      0.01%     99.85% # Distribution of cycle latency between the first time a load is issued and its completion (Unspecified)
system.cpu.lsq0.loadToUse::100-109                922      0.01%     99.86% # Distribution of cycle latency between the first time a load is issued and its completion (Unspecified)
system.cpu.lsq0.loadToUse::110-119               1279      0.02%     99.88% # Distribution of cycle latency between the first time a load is issued and its completion (Unspecified)
system.cpu.lsq0.loadToUse::120-129               1354      0.02%     99.90% # Distribution of cycle latency between the first time a load is issued and its completion (Unspecified)
system.cpu.lsq0.loadToUse::130-139               3901      0.06%     99.96% # Distribution of cycle latency between the first time a load is issued and its completion (Unspecified)
system.cpu.lsq0.loadToUse::140-149                427      0.01%     99.97% # Distribution of cycle latency between the first time a load is issued and its completion (Unspecified)
system.cpu.lsq0.loadToUse::150-159                290      0.00%     99.97% # Distribution of cycle latency between the first time a load is issued and its completion (Unspecified)
system.cpu.lsq0.loadToUse::160-169                436      0.01%     99.98% # Distribution of cycle latency between the first time a load is issued and its completion (Unspecified)
system.cpu.lsq0.loadToUse::170-179                183      0.00%     99.98% # Distribution of cycle latency between the first time a load is issued and its completion (Unspecified)
system.cpu.lsq0.loadToUse::180-189                160      0.00%     99.98% # Distribution of cycle latency between the first time a load is issued and its completion (Unspecified)
system.cpu.lsq0.loadToUse::190-199                260      0.00%     99.99% # Distribution of cycle latency between the first time a load is issued and its completion (Unspecified)
system.cpu.lsq0.loadToUse::200-209                102      0.00%     99.99% # Distribution of cycle latency between the first time a load is issued and its completion (Unspecified)
system.cpu.lsq0.loadToUse::210-219                 70      0.00%     99.99% # Distribution of cycle latency between the first time a load is issued and its completion (Unspecified)
system.cpu.lsq0.loadToUse::220-229                 63      0.00%     99.99% # Distribution of cycle latency between the first time a load is issued and its completion (Unspecified)
system.cpu.lsq0.loadToUse::230-239                 95      0.00%     99.99% # Distribution of cycle latency between the first time a load is issued and its completion (Unspecified)
system.cpu.lsq0.loadToUse::240-249                 99      0.00%     99.99% # Distribution of cycle latency between the first time a load is issued and its completion (Unspecified)
system.cpu.lsq0.loadToUse::250-259                 71      0.00%     99.99% # Distribution of cycle latency between the first time a load is issued and its completion (Unspecified)
system.cpu.lsq0.loadToUse::260-269                 36      0.00%     99.99% # Distribution of cycle latency between the first time a load is issued and its completion (Unspecified)
system.cpu.lsq0.loadToUse::270-279                 59      0.00%     99.99% # Distribution of cycle latency between the first time a load is issued and its completion (Unspecified)
system.cpu.lsq0.loadToUse::280-289                 36      0.00%     99.99% # Distribution of cycle latency between the first time a load is issued and its completion (Unspecified)
system.cpu.lsq0.loadToUse::290-299                 20      0.00%    100.00% # Distribution of cycle latency between the first time a load is issued and its completion (Unspecified)
system.cpu.lsq0.loadToUse::overflows              334      0.00%    100.00% # Distribution of cycle latency between the first time a load is issued and its completion (Unspecified)
system.cpu.lsq0.loadToUse::min_value                2                       # Distribution of cycle latency between the first time a load is issued and its completion (Unspecified)
[...]
system.mem_ctrls.dram.numReads::cpu.inst         1128                       # Number of read requests responded to by this memory (Count)
system.mem_ctrls.dram.numReads::cpu.data         5067                       # Number of read requests responded to by this memory (Count)
system.mem_ctrls.dram.numReads::total            6195                       # Number of read requests responded to by this memory (Count)
system.mem_ctrls.dram.numWrites::writebacks         3462                       # Number of write requests responded to by this memory (Count)
system.mem_ctrls.dram.numWrites::total           3462                       # Number of write requests responded to by this memory (Count)
system.mem_ctrls.dram.bwRead::cpu.inst        3370214                       # Total read bandwidth from this memory ((Byte/Second))
system.mem_ctrls.dram.bwRead::cpu.data       15139071                       # Total read bandwidth from this memory ((Byte/Second))
system.mem_ctrls.dram.bwRead::total          18509285                       # Total read bandwidth from this memory ((Byte/Second))
system.mem_ctrls.dram.bwInstRead::cpu.inst      3370214                       # Instruction read bandwidth from this memory ((Byte/Second))
system.mem_ctrls.dram.bwInstRead::total       3370214                       # Instruction read bandwidth from this memory ((Byte/Second))
system.mem_ctrls.dram.bwWrite::writebacks     10343688                       # Write bandwidth from this memory ((Byte/Second))
system.mem_ctrls.dram.bwWrite::total         10343688                       # Write bandwidth from this memory ((Byte/Second))
system.mem_ctrls.dram.bwTotal::writebacks     10343688                       # Total bandwidth to/from this memory ((Byte/Second))
system.mem_ctrls.dram.bwTotal::cpu.inst       3370214                       # Total bandwidth to/from this memory ((Byte/Second))
system.mem_ctrls.dram.bwTotal::cpu.data      15139071                       # Total bandwidth to/from this memory ((Byte/Second))
system.mem_ctrls.dram.bwTotal::total         28852973                       # Total bandwidth to/from this memory ((Byte/Second))
system.mem_ctrls.dram.readBursts                 6085                       # Number of DRAM read bursts (Count)
system.mem_ctrls.dram.writeBursts                3423                       # Number of DRAM write bursts (Count)
system.mem_ctrls.dram.perBankRdBursts::0          350                       # Per bank write bursts (Count)
system.mem_ctrls.dram.perBankRdBursts::1          350                       # Per bank write bursts (Count)
system.mem_ctrls.dram.perBankRdBursts::2          328                       # Per bank write bursts (Count)
system.mem_ctrls.dram.perBankRdBursts::3          215                       # Per bank write bursts (Count)
system.mem_ctrls.dram.perBankRdBursts::4          155                       # Per bank write bursts (Count)
system.mem_ctrls.dram.perBankRdBursts::5          172                       # Per bank write bursts (Count)
system.mem_ctrls.dram.perBankRdBursts::6          147                       # Per bank write bursts (Count)
system.mem_ctrls.dram.perBankRdBursts::7          139                       # Per bank write bursts (Count)
system.mem_ctrls.dram.perBankRdBursts::8          782                       # Per bank write bursts (Count)
system.mem_ctrls.dram.perBankRdBursts::9          754                       # Per bank write bursts (Count)
system.mem_ctrls.dram.perBankRdBursts::10          883                       # Per bank write bursts (Count)
system.mem_ctrls.dram.perBankRdBursts::11          727                       # Per bank write bursts (Count)
system.mem_ctrls.dram.perBankRdBursts::12          638                       # Per bank write bursts (Count)
system.mem_ctrls.dram.perBankRdBursts::13          100                       # Per bank write bursts (Count)
system.mem_ctrls.dram.perBankRdBursts::14          147                       # Per bank write bursts (Count)
system.mem_ctrls.dram.perBankRdBursts::15          198                       # Per bank write bursts (Count)
system.mem_ctrls.dram.perBankWrBursts::0           80                       # Per bank write bursts (Count)
system.mem_ctrls.dram.perBankWrBursts::1           69                       # Per bank write bursts (Count)
system.mem_ctrls.dram.perBankWrBursts::2          105                       # Per bank write bursts (Count)
system.mem_ctrls.dram.perBankWrBursts::3           88                       # Per bank write bursts (Count)
system.mem_ctrls.dram.perBankWrBursts::4            0                       # Per bank write bursts (Count)
system.mem_ctrls.dram.perBankWrBursts::5            0                       # Per bank write bursts (Count)
system.mem_ctrls.dram.perBankWrBursts::6            2                       # Per bank write bursts (Count)
system.mem_ctrls.dram.perBankWrBursts::7            0                       # Per bank write bursts (Count)
system.mem_ctrls.dram.perBankWrBursts::8          683                       # Per bank write bursts (Count)
system.mem_ctrls.dram.perBankWrBursts::9          684                       # Per bank write bursts (Count)
system.mem_ctrls.dram.perBankWrBursts::10          696                       # Per bank write bursts (Count)
system.mem_ctrls.dram.perBankWrBursts::11          479                       # Per bank write bursts (Count)
system.mem_ctrls.dram.perBankWrBursts::12          437                       # Per bank write bursts (Count)
system.mem_ctrls.dram.perBankWrBursts::13           43                       # Per bank write bursts (Count)
system.mem_ctrls.dram.perBankWrBursts::14            3                       # Per bank write bursts (Count)
system.mem_ctrls.dram.perBankWrBursts::15           54                       # Per bank write bursts (Count)
system.mem_ctrls.dram.totQLat                55169750                       # Total ticks spent queuing (Tick)
system.mem_ctrls.dram.totBusLat              30425000                       # Total ticks spent in databus transfers (Tick)
system.mem_ctrls.dram.totMemAccLat          169263500                       # Total ticks spent from burst creation until serviced by the DRAM (Tick)
system.mem_ctrls.dram.avgQLat                 9066.52                       # Average queueing delay per DRAM burst ((Tick/Count))
system.mem_ctrls.dram.avgBusLat               5000.00                       # Average bus latency per DRAM burst ((Tick/Count))
system.mem_ctrls.dram.avgMemAccLat           27816.52                       # Average memory access latency per DRAM burst ((Tick/Count))
system.mem_ctrls.dram.readRowHits                5145                       # Number of row buffer hits during reads (Count)
system.mem_ctrls.dram.writeRowHits               3092                       # Number of row buffer hits during writes (Count)
system.mem_ctrls.dram.readRowHitRate            84.55                       # Row buffer hit rate for reads (Ratio)
system.mem_ctrls.dram.writeRowHitRate           90.33                       # Row buffer hit rate for writes (Ratio)
system.mem_ctrls.dram.bytesPerActivate::samples         1268                       # Bytes accessed per row activation (Byte)
system.mem_ctrls.dram.bytesPerActivate::mean   479.646688                       # Bytes accessed per row activation (Byte)
system.mem_ctrls.dram.bytesPerActivate::gmean   295.805756                       # Bytes accessed per row activation (Byte)
system.mem_ctrls.dram.bytesPerActivate::stdev   391.499352                       # Bytes accessed per row activation (Byte)
system.mem_ctrls.dram.bytesPerActivate::0-127          303     23.90%     23.90% # Bytes accessed per row activation (Byte)
system.mem_ctrls.dram.bytesPerActivate::128-255          216     17.03%     40.93% # Bytes accessed per row activation (Byte)
system.mem_ctrls.dram.bytesPerActivate::256-383          110      8.68%     49.61% # Bytes accessed per row activation (Byte)
system.mem_ctrls.dram.bytesPerActivate::384-511          120      9.46%     59.07% # Bytes accessed per row activation (Byte)
system.mem_ctrls.dram.bytesPerActivate::512-639           62      4.89%     63.96% # Bytes accessed per row activation (Byte)
system.mem_ctrls.dram.bytesPerActivate::640-767           49      3.86%     67.82% # Bytes accessed per row activation (Byte)
system.mem_ctrls.dram.bytesPerActivate::768-895           27      2.13%     69.95% # Bytes accessed per row activation (Byte)
system.mem_ctrls.dram.bytesPerActivate::896-1023           43      3.39%     73.34% # Bytes accessed per row activation (Byte)
system.mem_ctrls.dram.bytesPerActivate::1024-1151          338     26.66%    100.00% # Bytes accessed per row activation (Byte)
system.mem_ctrls.dram.bytesPerActivate::total         1268                       # Bytes accessed per row activation (Byte)
system.mem_ctrls.dram.bytesRead                389440                       # Total bytes read (Byte)
system.mem_ctrls.dram.bytesWritten             219072                       # Total bytes written (Byte)
system.mem_ctrls.dram.avgRdBW               18.180629                       # Average DRAM read bandwidth in MiBytes/s ((Byte/Second))
system.mem_ctrls.dram.avgWrBW               10.227164                       # Average DRAM write bandwidth in MiBytes/s ((Byte/Second))
system.mem_ctrls.dram.peakBW                 12800.00                       # Theoretical peak bandwidth in MiByte/s ((Byte/Second))
system.mem_ctrls.dram.busUtil                    0.22                       # Data bus utilization in percentage (Ratio)
system.mem_ctrls.dram.busUtilRead                0.14                       # Data bus utilization in percentage for reads (Ratio)
system.mem_ctrls.dram.busUtilWrite               0.08                       # Data bus utilization in percentage for writes (Ratio)
system.mem_ctrls.dram.pageHitRate               86.63                       # Row buffer hit rate, read and write combined (Ratio)
system.mem_ctrls.dram.power_state.pwrStateResidencyTicks::UNDEFINED  21420600500                       # Cumulative time (in ticks) in various power states (Tick)
system.mem_ctrls.dram.rank0.actEnergy         3205860                       # Energy for activate commands per rank (pJ) (Joule)
system.mem_ctrls.dram.rank0.preEnergy         1703955                       # Energy for precharge commands per rank (pJ) (Joule)
system.mem_ctrls.dram.rank0.readEnergy       13251840                       # Energy for read commands per rank (pJ) (Joule)
system.mem_ctrls.dram.rank0.writeEnergy       1795680                       # Energy for write commands per rank (pJ) (Joule)
system.mem_ctrls.dram.rank0.refreshEnergy 1690874640.000000                       # Energy for refresh commands per rank (pJ) (Joule)
system.mem_ctrls.dram.rank0.actBackEnergy    500906880                       # Energy for active background per rank (pJ) (Joule)
system.mem_ctrls.dram.rank0.preBackEnergy   7803694560                       # Energy for precharge background per rank (pJ) (Joule)
system.mem_ctrls.dram.rank0.actPowerDownEnergy            0                       # Energy for active power-down per rank (pJ) (Joule)
system.mem_ctrls.dram.rank0.prePowerDownEnergy            0                       # Energy for precharge power-down per rank (pJ) (Joule)
system.mem_ctrls.dram.rank0.selfRefreshEnergy            0                       # Energy for self refresh per rank (pJ) (Joule)
system.mem_ctrls.dram.rank0.totalEnergy   10015433415                       # Total energy per rank (pJ) (Joule)
system.mem_ctrls.dram.rank0.averagePower   467.560814                       # Core power per rank (mW) (Watt)
system.mem_ctrls.dram.rank0.totalIdleTime            0                       # Total Idle time Per DRAM Rank (Tick)
system.mem_ctrls.dram.rank0.pwrStateTime::IDLE  20283051250                       # Time in different power states (Tick)
system.mem_ctrls.dram.rank0.pwrStateTime::REF    715260000                       # Time in different power states (Tick)
system.mem_ctrls.dram.rank0.pwrStateTime::SREF            0                       # Time in different power states (Tick)
system.mem_ctrls.dram.rank0.pwrStateTime::PRE_PDN            0                       # Time in different power states (Tick)
system.mem_ctrls.dram.rank0.pwrStateTime::ACT    422289250                       # Time in different power states (Tick)
system.mem_ctrls.dram.rank0.pwrStateTime::ACT_PDN            0                       # Time in different power states (Tick)
system.mem_ctrls.dram.rank1.actEnergy         5869080                       # Energy for activate commands per rank (pJ) (Joule)
system.mem_ctrls.dram.rank1.preEnergy         3108105                       # Energy for precharge commands per rank (pJ) (Joule)
system.mem_ctrls.dram.rank1.readEnergy       30195060                       # Energy for read commands per rank (pJ) (Joule)
system.mem_ctrls.dram.rank1.writeEnergy      16072380                       # Energy for write commands per rank (pJ) (Joule)
system.mem_ctrls.dram.rank1.refreshEnergy 1690874640.000000                       # Energy for refresh commands per rank (pJ) (Joule)
system.mem_ctrls.dram.rank1.actBackEnergy    727263000                       # Energy for active background per rank (pJ) (Joule)
system.mem_ctrls.dram.rank1.preBackEnergy   7613078880                       # Energy for precharge background per rank (pJ) (Joule)
system.mem_ctrls.dram.rank1.actPowerDownEnergy            0                       # Energy for active power-down per rank (pJ) (Joule)
system.mem_ctrls.dram.rank1.prePowerDownEnergy            0                       # Energy for precharge power-down per rank (pJ) (Joule)
system.mem_ctrls.dram.rank1.selfRefreshEnergy            0                       # Energy for self refresh per rank (pJ) (Joule)
system.mem_ctrls.dram.rank1.totalEnergy   10086461145                       # Total energy per rank (pJ) (Joule)
system.mem_ctrls.dram.rank1.averagePower   470.876675                       # Core power per rank (mW) (Watt)
system.mem_ctrls.dram.rank1.totalIdleTime            0                       # Total Idle time Per DRAM Rank (Tick)
system.mem_ctrls.dram.rank1.pwrStateTime::IDLE  19785482500                       # Time in different power states (Tick)
system.mem_ctrls.dram.rank1.pwrStateTime::REF    715260000                       # Time in different power states (Tick)
system.mem_ctrls.dram.rank1.pwrStateTime::SREF            0                       # Time in different power states (Tick)
system.mem_ctrls.dram.rank1.pwrStateTime::PRE_PDN            0                       # Time in different power states (Tick)
system.mem_ctrls.dram.rank1.pwrStateTime::ACT    919858000                       # Time in different power states (Tick)
system.mem_ctrls.dram.rank1.pwrStateTime::ACT_PDN            0                       # Time in different power states (Tick)
system.mem_ctrls.power_state.pwrStateResidencyTicks::UNDEFINED  21420600500                       # Cumulative time (in ticks) in various power states (Tick)
system.membus.transDist::ReadResp                4383                       # Transaction distribution (Count)
system.membus.transDist::WritebackDirty          3462                       # Transaction distribution (Count)
system.membus.transDist::CleanEvict              2216                       # Transaction distribution (Count)
system.membus.transDist::ReadExReq               1812                       # Transaction distribution (Count)
system.membus.transDist::ReadExResp              1812                       # Transaction distribution (Count)
system.membus.transDist::ReadSharedReq           4383                       # Transaction distribution (Count)
system.membus.pktCount_system.l2cache.mem_side_port::system.mem_ctrls.port        18068                       # Packet count per connected requestor and responder (Count)
system.membus.pktCount_system.l2cache.mem_side_port::total        18068                       # Packet count per connected requestor and responder (Count)
system.membus.pktCount::total                   18068                       # Packet count per connected requestor and responder (Count)
system.membus.pktSize_system.l2cache.mem_side_port::system.mem_ctrls.port       618048                       # Cumulative packet size per connected requestor and responder (Byte)
system.membus.pktSize_system.l2cache.mem_side_port::total       618048                       # Cumulative packet size per connected requestor and responder (Byte)
system.membus.pktSize::total                   618048                       # Cumulative packet size per connected requestor and responder (Byte)
system.membus.snoops                                0                       # Total snoops (Count)
system.membus.snoopTraffic                          0                       # Total snoop traffic (Byte)
system.membus.snoopFanout::samples               6195                       # Request fanout histogram (Count)
system.membus.snoopFanout::mean                     0                       # Request fanout histogram (Count)
system.membus.snoopFanout::stdev                    0                       # Request fanout histogram (Count)
system.membus.snoopFanout::underflows               0      0.00%      0.00% # Request fanout histogram (Count)
system.membus.snoopFanout::0                     6195    100.00%    100.00% # Request fanout histogram (Count)
system.membus.snoopFanout::1                        0      0.00%    100.00% # Request fanout histogram (Count)
system.membus.snoopFanout::overflows                0      0.00%    100.00% # Request fanout histogram (Count)
system.membus.snoopFanout::min_value                0                       # Request fanout histogram (Count)
system.membus.snoopFanout::max_value                0                       # Request fanout histogram (Count)
system.membus.snoopFanout::total                 6195                       # Request fanout histogram (Count)
system.membus.power_state.pwrStateResidencyTicks::UNDEFINED  21420600500                       # Cumulative time (in ticks) in various power states (Tick)
system.membus.reqLayer2.occupancy            12860500                       # Layer occupancy (ticks) (Tick)
system.membus.reqLayer2.utilization               0.0                       # Layer utilization (Ratio)
system.membus.respLayer1.occupancy           16821000                       # Layer occupancy (ticks) (Tick)
system.membus.respLayer1.utilization              0.0                       # Layer utilization (Ratio)
system.membus.snoop_filter.totRequests          11873                       # Total number of requests made to the snoop filter. (Count)
system.membus.snoop_filter.hitSingleRequests         5678                       # Number of requests hitting in the snoop filter with a single holder of the requested data. (Count)
system.membus.snoop_filter.hitMultiRequests            0                       # Number of requests hitting in the snoop filter with multiple (>1) holders of the requested data. (Count)
system.membus.snoop_filter.totSnoops                0                       # Total number of snoops made to the snoop filter. (Count)
system.membus.snoop_filter.hitSingleSnoops            0                       # Number of snoops hitting in the snoop filter with a single holder of the requested data. (Count)
system.membus.snoop_filter.hitMultiSnoops            0                       # Number of snoops hitting in the snoop filter with multiple (>1) holders of the requested data. (Count)
system.workload.inst.arm                            0                       # number of arm instructions executed (Count)
system.workload.inst.quiesce                        0                       # number of quiesce instructions executed (Count)

---------- End Simulation Statistics   ----------
